<?xml version="1.0" encoding="UTF-8"?>

<!-- generated on 2025-05-02 00:04:33 by Eclipse SUMO duarouter Version 1.9.2
<configuration xmlns:xsi="http://www.w3.org/2001/XMLSchema-instance" xsi:noNamespaceSchemaLocation="http://sumo.dlr.de/xsd/duarouterConfiguration.xsd">

    <input>
        <net-file value="/opt/homebrew/Cellar/sumo@1.9.2/1.9.2_2/share/sumo/tools/2025-05-02-00-04-13/osm.net.xml"/>
        <route-files value="/opt/homebrew/Cellar/sumo@1.9.2/1.9.2_2/share/sumo/tools/2025-05-02-00-04-13/osm.motorcycle.trips.xml"/>
    </input>

    <output>
        <output-file value="/opt/homebrew/Cellar/sumo@1.9.2/1.9.2_2/share/sumo/tools/2025-05-02-00-04-13/osm.motorcycle.trips.xml.tmp"/>
        <write-trips value="true"/>
    </output>

    <time>
        <begin value="0"/>
        <end value="3600"/>
    </time>

    <report>
        <no-warnings value="true"/>
        <ignore-errors value="true"/>
        <no-step-log value="true"/>
    </report>

</configuration>
-->

<routes xmlns:xsi="http://www.w3.org/2001/XMLSchema-instance" xsi:noNamespaceSchemaLocation="http://sumo.dlr.de/xsd/routes_file.xsd">
    <vType id="moto_motorcycle" vClass="motorcycle"/>
    <trip id="moto0" type="moto_motorcycle" depart="0.00" departLane="best" departSpeed="max" from="156994961#0" to="1312939985#0"/>
    <trip id="moto1" type="moto_motorcycle" depart="2.62" departLane="best" from="5671115#4" to="499172074#9"/>
    <trip id="moto2" type="moto_motorcycle" depart="5.24" departLane="best" from="483360105#0" to="460606347#0"/>
    <trip id="moto3" type="moto_motorcycle" depart="7.86" departLane="best" from="968394456#0" to="273019810#2"/>
    <trip id="moto4" type="moto_motorcycle" depart="10.49" departLane="best" from="1025734022#0" to="1034703028#0"/>
    <trip id="moto5" type="moto_motorcycle" depart="13.11" departLane="best" from="458166896#9" to="976050705#0"/>
    <trip id="moto6" type="moto_motorcycle" depart="15.73" departLane="best" from="989791207#0" to="46522003#0"/>
    <trip id="moto7" type="moto_motorcycle" depart="18.35" departLane="best" from="846142552#0" to="420904660#0"/>
    <trip id="moto8" type="moto_motorcycle" depart="20.97" departLane="best" from="1364312922" to="1376704198#0"/>
    <trip id="moto9" type="moto_motorcycle" depart="23.59" departLane="best" from="569345502#3" to="420281338#0"/>
    <trip id="moto10" type="moto_motorcycle" depart="26.22" departLane="best" from="988977545#4" to="729972918#0"/>
    <trip id="moto11" type="moto_motorcycle" depart="28.84" departLane="best" from="1376704197#0" to="46522006#0"/>
    <trip id="moto12" type="moto_motorcycle" depart="31.46" departLane="best" from="46481747#0" to="1124078896#0"/>
    <trip id="moto13" type="moto_motorcycle" depart="34.08" departLane="best" departSpeed="max" from="5673461#0" to="458180194#0"/>
    <trip id="moto14" type="moto_motorcycle" depart="36.70" departLane="best" from="-36271338#4" to="936539648#0"/>
    <trip id="moto15" type="moto_motorcycle" depart="39.32" departLane="best" from="420901682#0" to="46201643"/>
    <trip id="moto17" type="moto_motorcycle" depart="44.57" departLane="best" from="388696206#0" to="458177130#0"/>
    <trip id="moto19" type="moto_motorcycle" depart="49.81" departLane="best" from="68674961#4" to="1021068251#0"/>
    <trip id="moto20" type="moto_motorcycle" depart="52.43" departLane="best" from="962626218#0" to="464516471#7"/>
    <trip id="moto21" type="moto_motorcycle" depart="55.05" departLane="best" from="36801165#0" to="273895449#0"/>
    <trip id="moto22" type="moto_motorcycle" depart="57.68" departLane="best" from="1316295724#3" to="884400294#0"/>
    <trip id="moto23" type="moto_motorcycle" depart="60.30" departLane="best" from="458180185#0" to="-5671365#1"/>
    <trip id="moto24" type="moto_motorcycle" depart="62.92" departLane="best" from="1106482765#0" to="198595461#10"/>
    <trip id="moto25" type="moto_motorcycle" depart="65.54" departLane="best" from="-542096278#5" to="46469725"/>
    <trip id="moto26" type="moto_motorcycle" depart="68.16" departLane="best" from="464516471#7" to="46492638#0"/>
    <trip id="moto28" type="moto_motorcycle" depart="73.41" departLane="best" departSpeed="max" from="458106345#0" to="945167874#0"/>
    <trip id="moto30" type="moto_motorcycle" depart="78.65" departLane="best" from="499172074#0" to="198595461#13"/>
    <trip id="moto31" type="moto_motorcycle" depart="81.27" departLane="best" departSpeed="max" from="992164860" to="992144532"/>
    <trip id="moto32" type="moto_motorcycle" depart="83.89" departLane="best" from="46482539#0" to="989267828#0"/>
    <trip id="moto33" type="moto_motorcycle" depart="86.51" departLane="best" from="5670124" to="1272613980#0"/>
    <trip id="moto34" type="moto_motorcycle" depart="89.14" departLane="best" from="384649120#2" to="-139919706#1"/>
    <trip id="moto35" type="moto_motorcycle" depart="91.76" departLane="best" from="569345531#0" to="729972918#0"/>
    <trip id="moto36" type="moto_motorcycle" depart="94.38" departLane="best" from="588168464#0" to="194923795#0"/>
    <trip id="moto37" type="moto_motorcycle" depart="97.00" departLane="best" from="5673515#0" to="1049879868#0"/>
    <trip id="moto38" type="moto_motorcycle" depart="99.62" departLane="best" from="420598333#0" to="226040992#0"/>
    <trip id="moto39" type="moto_motorcycle" depart="102.24" departLane="best" from="974611017" to="194920158#3"/>
    <trip id="moto40" type="moto_motorcycle" depart="104.87" departLane="best" from="-1088325193#1" to="884400300"/>
    <trip id="moto41" type="moto_motorcycle" depart="107.49" departLane="best" from="1051750426#0" to="396444295#7"/>
    <trip id="moto42" type="moto_motorcycle" depart="110.11" departLane="best" from="384826723#0" to="46469720#0"/>
    <trip id="moto43" type="moto_motorcycle" depart="112.73" departLane="best" from="368938760#0" to="46520833#3"/>
    <trip id="moto44" type="moto_motorcycle" depart="115.35" departLane="best" from="5672036#0" to="569345536#0"/>
    <trip id="moto45" type="moto_motorcycle" depart="117.97" departLane="best" from="455122830#0" to="-5671365#1"/>
    <trip id="moto46" type="moto_motorcycle" depart="120.60" departLane="best" from="5670225#0" to="458166893#0"/>
    <trip id="moto48" type="moto_motorcycle" depart="125.84" departLane="best" from="-988980354#1" to="195743182#6"/>
    <trip id="moto49" type="moto_motorcycle" depart="128.46" departLane="best" from="542258061#0" to="-988956476"/>
    <trip id="moto50" type="moto_motorcycle" depart="131.08" departLane="best" from="36806670-AddedOnRampEdge" to="460585328#6"/>
    <trip id="moto51" type="moto_motorcycle" depart="133.70" departLane="best" from="226041002#0" to="5673323#0"/>
    <trip id="moto52" type="moto_motorcycle" depart="136.33" departLane="best" departSpeed="max" from="1059309735" to="420906753#0"/>
    <trip id="moto53" type="moto_motorcycle" depart="138.95" departLane="best" from="5672036#3" to="68674961#12"/>
    <trip id="moto54" type="moto_motorcycle" depart="141.57" departLane="best" departSpeed="max" from="483704512#0" to="587038129#0"/>
    <trip id="moto55" type="moto_motorcycle" depart="144.19" departLane="best" departSpeed="max" from="965833822#0" to="125480075#0"/>
    <trip id="moto56" type="moto_motorcycle" depart="146.81" departLane="best" from="-36801165#2" to="1123877141#0"/>
    <trip id="moto57" type="moto_motorcycle" depart="149.43" departLane="best" from="1051745205#0" to="497258108#0"/>
    <trip id="moto58" type="moto_motorcycle" depart="152.06" departLane="best" from="460585328#0" to="1308875366#2"/>
    <trip id="moto59" type="moto_motorcycle" depart="154.68" departLane="best" from="541331485#0" to="569345515#3"/>
    <trip id="moto60" type="moto_motorcycle" depart="157.30" departLane="best" from="5671442#0" to="1051750426#0"/>
    <trip id="moto61" type="moto_motorcycle" depart="159.92" departLane="best" from="1031879418#0" to="-420904621#1"/>
    <trip id="moto62" type="moto_motorcycle" depart="162.54" departLane="best" from="5669669#4" to="1022796561"/>
    <trip id="moto63" type="moto_motorcycle" depart="165.16" departLane="best" departSpeed="max" from="511924053#0" to="46518739#0"/>
    <trip id="moto64" type="moto_motorcycle" depart="167.79" departLane="best" from="1049888072#0" to="989265272#0"/>
    <trip id="moto65" type="moto_motorcycle" depart="170.41" departLane="best" from="1376704198#6" to="710571392#0"/>
    <trip id="moto66" type="moto_motorcycle" depart="173.03" departLane="best" from="630828584#0" to="1027181006#0"/>
    <trip id="moto67" type="moto_motorcycle" depart="175.65" departLane="best" departSpeed="max" from="420598349#0" to="46490540#0"/>
    <trip id="moto68" type="moto_motorcycle" depart="178.27" departLane="best" departSpeed="max" from="1209567443#0" to="654561413"/>
    <trip id="moto69" type="moto_motorcycle" depart="180.89" departLane="best" from="420907902#0" to="626514137#0"/>
    <trip id="moto70" type="moto_motorcycle" depart="183.52" departLane="best" from="1027130505#0" to="1312887381#0"/>
    <trip id="moto71" type="moto_motorcycle" depart="186.14" departLane="best" from="167922077#0" to="1038939784#0"/>
    <trip id="moto72" type="moto_motorcycle" depart="188.76" departLane="best" from="989265268#0" to="46334593#0"/>
    <trip id="moto73" type="moto_motorcycle" depart="191.38" departLane="best" from="420872188#0" to="420872177#0"/>
    <trip id="moto74" type="moto_motorcycle" depart="194.00" departLane="best" from="-497165757#3" to="1106482768#0"/>
    <trip id="moto75" type="moto_motorcycle" depart="196.62" departLane="best" from="458180200#0" to="198924587#0"/>
    <trip id="moto76" type="moto_motorcycle" depart="199.25" departLane="best" from="5672730#0" to="46482609#0"/>
    <trip id="moto77" type="moto_motorcycle" depart="201.87" departLane="best" from="989791208#0" to="226040992#0"/>
    <trip id="moto78" type="moto_motorcycle" depart="204.49" departLane="best" from="46492007" to="46490538#5"/>
    <trip id="moto79" type="moto_motorcycle" depart="207.11" departLane="best" from="496986803#7" to="1135620538#0"/>
    <trip id="moto80" type="moto_motorcycle" depart="209.73" departLane="best" from="464516471#3" to="195743344#0"/>
    <trip id="moto81" type="moto_motorcycle" depart="212.35" departLane="best" from="542257008#0" to="420903240#0"/>
    <trip id="moto82" type="moto_motorcycle" depart="214.98" departLane="best" departSpeed="max" from="511924053#0" to="884400294#0"/>
    <trip id="moto83" type="moto_motorcycle" depart="217.60" departLane="best" from="5671629#0" to="464516471#15"/>
    <trip id="moto84" type="moto_motorcycle" depart="220.22" departLane="best" from="420908132#0" to="1027130505#0"/>
    <trip id="moto85" type="moto_motorcycle" depart="222.84" departLane="best" from="630828586#2" to="464683339#8"/>
    <trip id="moto87" type="moto_motorcycle" depart="228.08" departLane="best" from="858965315#0" to="1201643836#0"/>
    <trip id="moto88" type="moto_motorcycle" depart="230.71" departLane="best" from="989267828#7" to="496986803#13"/>
    <trip id="moto89" type="moto_motorcycle" depart="233.33" departLane="best" departSpeed="max" from="5672190#0" to="1272613980#0"/>
    <trip id="moto91" type="moto_motorcycle" depart="238.57" departLane="best" from="46481747#0" to="1320235306#0"/>
    <trip id="moto92" type="moto_motorcycle" depart="241.19" departLane="best" from="458180187#3" to="1030123278#0"/>
    <trip id="moto93" type="moto_motorcycle" depart="243.81" departLane="best" from="989793295#0" to="847994493#5"/>
    <trip id="moto94" type="moto_motorcycle" depart="246.44" departLane="best" from="5670106#0" to="458166897#0"/>
    <trip id="moto95" type="moto_motorcycle" depart="249.06" departLane="best" from="458180186#4" to="36806906#3"/>
    <trip id="moto97" type="moto_motorcycle" depart="254.30" departLane="best" from="420906753#0" to="1106482767#0"/>
    <trip id="moto98" type="moto_motorcycle" depart="256.92" departLane="best" from="420499932#3" to="226041020#0"/>
    <trip id="moto99" type="moto_motorcycle" depart="259.54" departLane="best" from="46201630#0-AddedOffRampEdge" to="1316831694#0"/>
    <trip id="moto100" type="moto_motorcycle" depart="262.17" departLane="best" departSpeed="max" from="5671365#0" to="542096279#0"/>
    <trip id="moto101" type="moto_motorcycle" depart="264.79" departLane="best" departSpeed="max" from="-420908136#1" to="458106344#0"/>
    <trip id="moto102" type="moto_motorcycle" depart="267.41" departLane="best" departSpeed="max" from="5670253#0" to="388696207#0"/>
    <trip id="moto103" type="moto_motorcycle" depart="270.03" departLane="best" from="485746107#0" to="1124078899#0"/>
    <trip id="moto104" type="moto_motorcycle" depart="272.65" departLane="best" from="1136460181#0" to="1025734019#0"/>
    <trip id="moto105" type="moto_motorcycle" depart="275.27" departLane="best" from="696491645#0" to="46492639#0"/>
    <trip id="moto106" type="moto_motorcycle" depart="277.90" departLane="best" from="1313071250#0" to="847994493#5"/>
    <trip id="moto107" type="moto_motorcycle" depart="280.52" departLane="best" from="46522007#0" to="420356171#0"/>
    <trip id="moto108" type="moto_motorcycle" depart="283.14" departLane="best" from="420904617#0" to="1320234484#0"/>
    <trip id="moto110" type="moto_motorcycle" depart="288.38" departLane="best" departSpeed="max" from="989265271#0" to="496986803#3"/>
    <trip id="moto111" type="moto_motorcycle" depart="291.00" departLane="best" departSpeed="max" from="156994961#0" to="464515614#6"/>
    <trip id="moto112" type="moto_motorcycle" depart="293.62" departLane="best" departSpeed="max" from="421852030#0" to="814278021#0"/>
    <trip id="moto113" type="moto_motorcycle" depart="296.25" departLane="best" from="169267544" to="658488333#0"/>
    <trip id="moto114" type="moto_motorcycle" depart="298.87" departLane="best" from="46522002#0" to="465066386"/>
    <trip id="moto115" type="moto_motorcycle" depart="301.49" departLane="best" from="511699175#0" to="5670124"/>
    <trip id="moto116" type="moto_motorcycle" depart="304.11" departLane="best" departSpeed="max" from="618990022#0" to="846142552#0"/>
    <trip id="moto117" type="moto_motorcycle" depart="306.73" departLane="best" from="368938760#0" to="1037772011"/>
    <trip id="moto118" type="moto_motorcycle" depart="309.35" departLane="best" from="458177128#6" to="988977545#0"/>
    <trip id="moto119" type="moto_motorcycle" depart="311.98" departLane="best" from="464683341#0" to="-420356169#3"/>
    <trip id="moto120" type="moto_motorcycle" depart="314.60" departLane="best" from="1088325196#0" to="1088321125#0"/>
    <trip id="moto121" type="moto_motorcycle" depart="317.22" departLane="best" from="1316295725#0" to="118400729#0"/>
    <trip id="moto123" type="moto_motorcycle" depart="322.46" departLane="best" from="5671349#0" to="458180189#0"/>
    <trip id="moto124" type="moto_motorcycle" depart="325.08" departLane="best" departSpeed="max" from="5673461#0" to="458166897#30"/>
    <trip id="moto125" type="moto_motorcycle" depart="327.71" departLane="best" from="1034529064#0" to="458166892#0"/>
    <trip id="moto127" type="moto_motorcycle" depart="332.95" departLane="best" departSpeed="max" from="5673511" to="743358445#2"/>
    <trip id="moto128" type="moto_motorcycle" depart="335.57" departLane="best" from="511699184#0" to="448686048#0"/>
    <trip id="moto129" type="moto_motorcycle" depart="338.19" departLane="best" from="46520921#6" to="46201630#0-AddedOffRampEdge"/>
    <trip id="moto130" type="moto_motorcycle" depart="340.81" departLane="best" from="195743345#0" to="992144532"/>
    <trip id="moto131" type="moto_motorcycle" depart="343.44" departLane="best" from="420496090#0" to="1316295724#0"/>
    <trip id="moto132" type="moto_motorcycle" depart="346.06" departLane="best" from="368938762#0" to="1031400325#0"/>
    <trip id="moto133" type="moto_motorcycle" depart="348.68" departLane="best" from="384178816#3" to="497165753#0"/>
    <trip id="moto134" type="moto_motorcycle" depart="351.30" departLane="best" from="273019810#2" to="1124078896#0"/>
    <trip id="moto135" type="moto_motorcycle" depart="353.92" departLane="best" from="46443656#0" to="46443656#6"/>
    <trip id="moto136" type="moto_motorcycle" depart="356.54" departLane="best" from="196116976#3" to="1061622295#0"/>
    <trip id="moto137" type="moto_motorcycle" depart="359.17" departLane="best" from="46469723#0" to="32939187#0"/>
    <trip id="moto139" type="moto_motorcycle" depart="364.41" departLane="best" from="68674968#8" to="464515614#6"/>
    <trip id="moto141" type="moto_motorcycle" depart="369.65" departLane="best" from="5673380#0" to="464515891#0"/>
    <trip id="moto142" type="moto_motorcycle" depart="372.27" departLane="best" from="396444294#18" to="194923812#2"/>
    <trip id="moto143" type="moto_motorcycle" depart="374.90" departLane="best" from="5672149#0" to="1051745205#0"/>
    <trip id="moto145" type="moto_motorcycle" depart="380.14" departLane="best" from="1149178606" to="36806680#3"/>
    <trip id="moto146" type="moto_motorcycle" depart="382.76" departLane="best" departSpeed="max" from="-696491643#1" to="733667933#0"/>
    <trip id="moto147" type="moto_motorcycle" depart="385.38" departLane="best" departSpeed="max" from="46201646" to="464683339#4"/>
    <trip id="moto148" type="moto_motorcycle" depart="388.00" departLane="best" from="554083353#0" to="396444294#23"/>
    <trip id="moto149" type="moto_motorcycle" depart="390.63" departLane="best" departSpeed="max" from="32939511" to="226041002#0"/>
    <trip id="moto150" type="moto_motorcycle" depart="393.25" departLane="best" from="600848485#0" to="1320232776#0"/>
    <trip id="moto151" type="moto_motorcycle" depart="395.87" departLane="best" from="46469727#3" to="5673515#0"/>
    <trip id="moto153" type="moto_motorcycle" depart="401.11" departLane="best" from="420356171#0" to="884400294#0"/>
    <trip id="moto154" type="moto_motorcycle" depart="403.73" departLane="best" departSpeed="max" from="194923800#0" to="194923812#2"/>
    <trip id="moto155" type="moto_motorcycle" depart="406.36" departLane="best" from="-511699183#2" to="458166896#5"/>
    <trip id="moto156" type="moto_motorcycle" depart="408.98" departLane="best" from="194923812#0" to="420901925"/>
    <trip id="moto157" type="moto_motorcycle" depart="411.60" departLane="best" from="-542096278#5" to="68674961#0"/>
    <trip id="moto158" type="moto_motorcycle" depart="414.22" departLane="best" from="-988956476" to="742215272#0"/>
    <trip id="moto159" type="moto_motorcycle" depart="416.84" departLane="best" from="68668519#0" to="46492008"/>
    <trip id="moto160" type="moto_motorcycle" depart="419.46" departLane="best" from="439768850#0" to="420907902#0"/>
    <trip id="moto161" type="moto_motorcycle" depart="422.09" departLane="best" from="458180190#0" to="619280617#0"/>
    <trip id="moto163" type="moto_motorcycle" depart="427.33" departLane="best" from="195743336#0" to="421850829#0"/>
    <trip id="moto164" type="moto_motorcycle" depart="429.95" departLane="best" from="1117867038#0" to="36271338#5"/>
    <trip id="moto165" type="moto_motorcycle" depart="432.57" departLane="best" from="569345468#0" to="46522160#8"/>
    <trip id="moto166" type="moto_motorcycle" depart="435.19" departLane="best" from="511699176#0" to="195743165#0"/>
    <trip id="moto167" type="moto_motorcycle" depart="437.82" departLane="best" from="803047267#0" to="767683113#0"/>
    <trip id="moto168" type="moto_motorcycle" depart="440.44" departLane="best" from="1087744935#0" to="32939046#0"/>
    <trip id="moto169" type="moto_motorcycle" depart="443.06" departLane="best" from="511699183#0" to="458180190#0"/>
    <trip id="moto170" type="moto_motorcycle" depart="445.68" departLane="best" from="-988956476" to="710571387#0"/>
    <trip id="moto171" type="moto_motorcycle" depart="448.30" departLane="best" from="1027189510#0" to="569345537#0"/>
    <trip id="moto172" type="moto_motorcycle" depart="450.92" departLane="best" departSpeed="max" from="-420908136#1" to="273019810#2"/>
    <trip id="moto173" type="moto_motorcycle" depart="453.55" departLane="best" departSpeed="max" from="5673063" to="1088325194"/>
    <trip id="moto174" type="moto_motorcycle" depart="456.17" departLane="best" from="273895449#0" to="1136952921#0"/>
    <trip id="moto175" type="moto_motorcycle" depart="458.79" departLane="best" from="587061869#0" to="1150636500#0"/>
    <trip id="moto176" type="moto_motorcycle" depart="461.41" departLane="best" from="458166894#0" to="226041001#0"/>
    <trip id="moto178" type="moto_motorcycle" depart="466.65" departLane="best" departSpeed="max" from="965833822#0" to="989265273#3"/>
    <trip id="moto179" type="moto_motorcycle" depart="469.28" departLane="best" departSpeed="max" from="308322447#0" to="458180191#3"/>
    <trip id="moto180" type="moto_motorcycle" depart="471.90" departLane="best" from="986615540#0" to="677067769#0"/>
    <trip id="moto181" type="moto_motorcycle" depart="474.52" departLane="best" from="1316295724#3" to="46522006#0"/>
    <trip id="moto183" type="moto_motorcycle" depart="479.76" departLane="best" from="226040998#4" to="-420904659#1"/>
    <trip id="moto184" type="moto_motorcycle" depart="482.38" departLane="best" from="273019812" to="-420908135"/>
    <trip id="moto185" type="moto_motorcycle" depart="485.01" departLane="best" from="630828556#0" to="528748997#8"/>
    <trip id="moto186" type="moto_motorcycle" depart="487.63" departLane="best" from="380145816#0" to="630828556#0"/>
    <trip id="moto187" type="moto_motorcycle" depart="490.25" departLane="best" from="384649121#0" to="46492008"/>
    <trip id="moto188" type="moto_motorcycle" depart="492.87" departLane="best" from="5672142#2" to="1207834768#0"/>
    <trip id="moto189" type="moto_motorcycle" depart="495.49" departLane="best" from="739911956#0" to="5672142#0"/>
    <trip id="moto190" type="moto_motorcycle" depart="498.11" departLane="best" from="458177130#0" to="226041013#0"/>
    <trip id="moto191" type="moto_motorcycle" depart="500.74" departLane="best" from="460585328#9" to="46482603"/>
    <trip id="moto192" type="moto_motorcycle" depart="503.36" departLane="best" from="35027229#0" to="46538335#0"/>
    <trip id="moto193" type="moto_motorcycle" depart="505.98" departLane="best" from="1316295724#3" to="1051745205#0"/>
    <trip id="moto194" type="moto_motorcycle" depart="508.60" departLane="best" from="5670874#0" to="455678353#0"/>
    <trip id="moto195" type="moto_motorcycle" depart="511.22" departLane="best" departSpeed="max" from="320888283" to="46443656#6"/>
    <trip id="moto197" type="moto_motorcycle" depart="516.47" departLane="best" from="226040993#0" to="-988980354#1"/>
    <trip id="moto198" type="moto_motorcycle" depart="519.09" departLane="best" from="671208358#6" to="544812894#0"/>
    <trip id="moto199" type="moto_motorcycle" depart="521.71" departLane="best" from="569345515#3" to="458166897#0"/>
    <trip id="moto200" type="moto_motorcycle" depart="524.33" departLane="best" from="1049888072#0" to="1267505843#0"/>
    <trip id="moto201" type="moto_motorcycle" depart="526.95" departLane="best" from="1061622295#0" to="619280601#0"/>
    <trip id="moto202" type="moto_motorcycle" depart="529.57" departLane="best" from="1022184080#0" to="226041001#0"/>
    <trip id="moto203" type="moto_motorcycle" depart="532.20" departLane="best" from="988984235#0" to="46522160#11"/>
    <trip id="moto204" type="moto_motorcycle" depart="534.82" departLane="best" from="420356172#0" to="500717399#0"/>
    <trip id="moto205" type="moto_motorcycle" depart="537.44" departLane="best" from="1156946160#0" to="968406200"/>
    <trip id="moto206" type="moto_motorcycle" depart="540.06" departLane="best" departSpeed="max" from="388240124#0" to="847994493#0"/>
    <trip id="moto207" type="moto_motorcycle" depart="542.68" departLane="best" from="-511699179#2" to="1082072647#0"/>
    <trip id="moto208" type="moto_motorcycle" depart="545.30" departLane="best" from="46481095#2" to="708353352#0"/>
    <trip id="moto209" type="moto_motorcycle" depart="547.93" departLane="best" from="375165664#0" to="46522001#0"/>
    <trip id="moto210" type="moto_motorcycle" depart="550.55" departLane="best" departSpeed="max" from="-696491643#1" to="-589494596#1"/>
    <trip id="moto211" type="moto_motorcycle" depart="553.17" departLane="best" from="1201839381" to="46482611#0"/>
    <trip id="moto212" type="moto_motorcycle" depart="555.79" departLane="best" from="1376704198#3" to="1376704198#6"/>
    <trip id="moto213" type="moto_motorcycle" depart="558.41" departLane="best" from="1123877140#0" to="226041031"/>
    <trip id="moto214" type="moto_motorcycle" depart="561.03" departLane="best" departSpeed="max" from="46201646" to="226041005#0"/>
    <trip id="moto215" type="moto_motorcycle" depart="563.66" departLane="best" from="226041003#0" to="-5671365#1"/>
    <trip id="moto216" type="moto_motorcycle" depart="566.28" departLane="best" from="226041041#0" to="384178812#0"/>
    <trip id="moto217" type="moto_motorcycle" depart="568.90" departLane="best" from="167922070#0" to="989270322#0"/>
    <trip id="moto218" type="moto_motorcycle" depart="571.52" departLane="best" departSpeed="max" from="962829746#0" to="5673461#10"/>
    <trip id="moto219" type="moto_motorcycle" depart="574.14" departLane="best" from="1201643838#0" to="458166897#12"/>
    <trip id="moto220" type="moto_motorcycle" depart="576.76" departLane="best" departSpeed="max" from="196117051#0" to="68668552#0"/>
    <trip id="moto221" type="moto_motorcycle" depart="579.39" departLane="best" from="458166892#3" to="542258060#0"/>
    <trip id="moto223" type="moto_motorcycle" depart="584.63" departLane="best" from="-36271338#13" to="226041006#0"/>
    <trip id="moto224" type="moto_motorcycle" depart="587.25" departLane="best" from="36806901" to="569345543#0"/>
    <trip id="moto225" type="moto_motorcycle" depart="589.87" departLane="best" from="5671115#0" to="-696491645#2"/>
    <trip id="moto226" type="moto_motorcycle" depart="592.49" departLane="best" departSpeed="max" from="198595461#0" to="32939187#0"/>
    <trip id="moto227" type="moto_motorcycle" depart="595.11" departLane="best" from="46481755#0" to="1211608942#0"/>
    <trip id="moto228" type="moto_motorcycle" depart="597.74" departLane="best" from="127693103#0" to="976050705#0"/>
    <trip id="moto229" type="moto_motorcycle" depart="600.36" departLane="best" from="1207834767#0" to="542096279#0"/>
    <trip id="moto230" type="moto_motorcycle" depart="602.98" departLane="best" from="458180185#0" to="936539648#0"/>
    <trip id="moto231" type="moto_motorcycle" depart="605.60" departLane="best" from="36806670" to="945167874#0"/>
    <trip id="moto232" type="moto_motorcycle" depart="608.22" departLane="best" from="708353352#3" to="421853646"/>
    <trip id="moto233" type="moto_motorcycle" depart="610.84" departLane="best" from="458166897#9" to="455122830#0"/>
    <trip id="moto234" type="moto_motorcycle" depart="613.47" departLane="best" departSpeed="max" from="962829746#0" to="710571391#2"/>
    <trip id="moto235" type="moto_motorcycle" depart="616.09" departLane="best" from="1038784416#0" to="1136952921#0"/>
    <trip id="moto236" type="moto_motorcycle" depart="618.71" departLane="best" departSpeed="max" from="5672190#0" to="1185734601#0"/>
    <trip id="moto238" type="moto_motorcycle" depart="623.95" departLane="best" from="195743343#0" to="1376929274#0"/>
    <trip id="moto239" type="moto_motorcycle" depart="626.57" departLane="best" departSpeed="max" from="194923800#0" to="5670247#0"/>
    <trip id="moto240" type="moto_motorcycle" depart="629.20" departLane="best" from="-169267538#1" to="485746107#0"/>
    <trip id="moto241" type="moto_motorcycle" depart="631.82" departLane="best" from="1049837362#0" to="226040996#0"/>
    <trip id="moto242" type="moto_motorcycle" depart="634.44" departLane="best" from="36806658#0" to="458106345#3"/>
    <trip id="moto243" type="moto_motorcycle" depart="637.06" departLane="best" from="858965315#0" to="196117042#6"/>
    <trip id="moto244" type="moto_motorcycle" depart="639.68" departLane="best" from="46482602#0" to="1308875366#2"/>
    <trip id="moto245" type="moto_motorcycle" depart="642.30" departLane="best" from="368938762#0" to="46201642#0"/>
    <trip id="moto246" type="moto_motorcycle" depart="644.93" departLane="best" departSpeed="max" from="698069210#0" to="1027130508#0"/>
    <trip id="moto247" type="moto_motorcycle" depart="647.55" departLane="best" from="-989265268#1" to="464515259#0"/>
    <trip id="moto248" type="moto_motorcycle" depart="650.17" departLane="best" from="-571651963#2" to="46201630#0"/>
    <trip id="moto249" type="moto_motorcycle" depart="652.79" departLane="best" from="438385431#6" to="464683339#0"/>
    <trip id="moto250" type="moto_motorcycle" depart="655.41" departLane="best" from="-542096280#1" to="420907902#0"/>
    <trip id="moto251" type="moto_motorcycle" depart="658.03" departLane="best" from="587038081#0" to="5670275#0"/>
    <trip id="moto252" type="moto_motorcycle" depart="660.66" departLane="best" departSpeed="max" from="5671365#0" to="464683341#0"/>
    <trip id="moto253" type="moto_motorcycle" depart="663.28" departLane="best" from="958919324#0" to="1021047632#0"/>
    <trip id="moto254" type="moto_motorcycle" depart="665.90" departLane="best" from="465256869" to="396444295#7"/>
    <trip id="moto255" type="moto_motorcycle" depart="668.52" departLane="best" from="68674968#4" to="819074877"/>
    <trip id="moto257" type="moto_motorcycle" depart="673.76" departLane="best" from="496989355#0" to="458180200#0"/>
    <trip id="moto258" type="moto_motorcycle" depart="676.39" departLane="best" departSpeed="max" from="458106346#0" to="5670719#8"/>
    <trip id="moto259" type="moto_motorcycle" depart="679.01" departLane="best" from="1271749957#0" to="-1088325196#1"/>
    <trip id="moto260" type="moto_motorcycle" depart="681.63" departLane="best" from="505317783#0" to="460589632#0"/>