<?xml version="1.0" encoding="UTF-8"?>

<!-- generated on 2025-05-02 00:04:32 by Eclipse SUMO duarouter Version 1.9.2
<configuration xmlns:xsi="http://www.w3.org/2001/XMLSchema-instance" xsi:noNamespaceSchemaLocation="http://sumo.dlr.de/xsd/duarouterConfiguration.xsd">

    <input>
        <net-file value="/opt/homebrew/Cellar/sumo@1.9.2/1.9.2_2/share/sumo/tools/2025-05-02-00-04-13/osm.net.xml"/>
        <route-files value="/opt/homebrew/Cellar/sumo@1.9.2/1.9.2_2/share/sumo/tools/2025-05-02-00-04-13/osm.passenger.trips.xml"/>
    </input>

    <output>
        <output-file value="/opt/homebrew/Cellar/sumo@1.9.2/1.9.2_2/share/sumo/tools/2025-05-02-00-04-13/osm.passenger.trips.xml.tmp"/>
        <write-trips value="true"/>
    </output>

    <time>
        <begin value="0"/>
        <end value="3600"/>
    </time>

    <report>
        <no-warnings value="true"/>
        <ignore-errors value="true"/>
        <no-step-log value="true"/>
    </report>

</configuration>
-->

<routes xmlns:xsi="http://www.w3.org/2001/XMLSchema-instance" xsi:noNamespaceSchemaLocation="http://sumo.dlr.de/xsd/routes_file.xsd">
    <vType id="veh_passenger" vClass="passenger"/>
    <trip id="veh0" type="veh_passenger" depart="0.00" departLane="best" from="46469732#0" to="-46482539#1"/>
    <trip id="veh2" type="veh_passenger" depart="0.87" departLane="best" from="5669356" to="497258108#2"/>
    <trip id="veh4" type="veh_passenger" depart="1.75" departLane="best" departSpeed="max" from="388240124#0" to="-542096280#1"/>
    <trip id="veh5" type="veh_passenger" depart="2.18" departLane="best" from="1306277595" to="455678353#0"/>
    <trip id="veh6" type="veh_passenger" depart="2.62" departLane="best" from="-420904658#3" to="127693200#3"/>
    <trip id="veh7" type="veh_passenger" depart="3.06" departLane="best" from="46482602#2" to="458180186#0"/>
    <trip id="veh8" type="veh_passenger" depart="3.50" departLane="best" from="1312939983#0" to="464515891#0"/>
    <trip id="veh9" type="veh_passenger" depart="3.93" departLane="best" from="587038101#0" to="-1320290376#1"/>
    <trip id="veh10" type="veh_passenger" depart="4.37" departLane="best" departSpeed="max" from="198595461#0" to="1156946157#0"/>
    <trip id="veh11" type="veh_passenger" depart="4.81" departLane="best" from="968513231#0" to="32939512#1"/>
    <trip id="veh12" type="veh_passenger" depart="5.24" departLane="best" from="1027227129#0" to="1040766903"/>
    <trip id="veh13" type="veh_passenger" depart="5.68" departLane="best" from="659714534#1" to="464683339#8"/>
    <trip id="veh15" type="veh_passenger" depart="6.55" departLane="best" from="44165030#0" to="988977540"/>
    <trip id="veh16" type="veh_passenger" depart="6.99" departLane="best" departSpeed="max" from="32939511" to="458180193#0"/>
    <trip id="veh18" type="veh_passenger" depart="7.86" departLane="best" from="68674961#16" to="46201630#0-AddedOffRampEdge"/>
    <trip id="veh19" type="veh_passenger" depart="8.30" departLane="best" departSpeed="max" from="511699179#0" to="-747908052#2"/>
    <trip id="veh20" type="veh_passenger" depart="8.74" departLane="best" departSpeed="max" from="1313892238" to="195743336#3"/>
    <trip id="veh21" type="veh_passenger" depart="9.18" departLane="best" from="1027130507#0" to="1316831700#0"/>
    <trip id="veh22" type="veh_passenger" depart="9.61" departLane="best" from="1031400324#0" to="194926849#3"/>
    <trip id="veh23" type="veh_passenger" depart="10.05" departLane="best" from="46469720#0" to="368938761#0"/>
    <trip id="veh24" type="veh_passenger" depart="10.49" departLane="best" from="31984130#0" to="1308875366#2"/>
    <trip id="veh26" type="veh_passenger" depart="11.36" departLane="best" from="46482541#0" to="46469725"/>
    <trip id="veh27" type="veh_passenger" depart="11.80" departLane="best" from="1167572183" to="5670867#0"/>
    <trip id="veh28" type="veh_passenger" depart="12.23" departLane="best" from="1150636501#0" to="381480256#0"/>
    <trip id="veh29" type="veh_passenger" depart="12.67" departLane="best" from="989267828#4" to="46518734#0"/>
    <trip id="veh30" type="veh_passenger" depart="13.11" departLane="best" from="458166896#0" to="499172074#9"/>
    <trip id="veh31" type="veh_passenger" depart="13.55" departLane="best" from="658488325" to="588157336#0"/>
    <trip id="veh33" type="veh_passenger" depart="14.42" departLane="best" from="195743182#3" to="194923795#0"/>
    <trip id="veh34" type="veh_passenger" depart="14.86" departLane="best" from="127693200#0" to="962813251#2"/>
    <trip id="veh35" type="veh_passenger" depart="15.29" departLane="best" from="696491645#0" to="226041029#0"/>
    <trip id="veh36" type="veh_passenger" depart="15.73" departLane="best" from="46492015" to="388240124#7"/>
    <trip id="veh38" type="veh_passenger" depart="16.60" departLane="best" from="144001606#0" to="1376704198#3"/>
    <trip id="veh39" type="veh_passenger" depart="17.04" departLane="best" from="458166897#12" to="169383514#0"/>
    <trip id="veh40" type="veh_passenger" depart="17.48" departLane="best" from="458180186#4" to="884400294#0"/>
    <trip id="veh42" type="veh_passenger" depart="18.35" departLane="best" departSpeed="max" from="992164860" to="456409017#3"/>
    <trip id="veh43" type="veh_passenger" depart="18.79" departLane="best" from="1027189510#0" to="-989265268#1"/>
    <trip id="veh44" type="veh_passenger" depart="19.23" departLane="best" from="1041012063#0" to="46490540#0"/>
    <trip id="veh45" type="veh_passenger" depart="19.66" departLane="best" from="569345499#0" to="420514149#4"/>
    <trip id="veh46" type="veh_passenger" depart="20.10" departLane="best" from="1021047632#0" to="382740985#0"/>
    <trip id="veh47" type="veh_passenger" depart="20.54" departLane="best" from="992164859" to="458166897#3"/>
    <trip id="veh48" type="veh_passenger" depart="20.97" departLane="best" departSpeed="max" from="989265271#0" to="747908053"/>
    <trip id="veh49" type="veh_passenger" depart="21.41" departLane="best" departSpeed="max" from="-226041024#1" to="5669664#0"/>
    <trip id="veh50" type="veh_passenger" depart="21.85" departLane="best" from="496986803#0" to="458177128#6"/>
    <trip id="veh51" type="veh_passenger" depart="22.28" departLane="best" departSpeed="max" from="156994961#0" to="46518739#0"/>
    <trip id="veh54" type="veh_passenger" depart="23.59" departLane="best" from="68674968#8" to="169383514#0"/>
    <trip id="veh55" type="veh_passenger" depart="24.03" departLane="best" from="420904660#0" to="1202082365#0"/>
    <trip id="veh57" type="veh_passenger" depart="24.91" departLane="best" departSpeed="max" from="194923801#0" to="46518732"/>
    <trip id="veh58" type="veh_passenger" depart="25.34" departLane="best" from="46139023#0" to="1150636499#0"/>
    <trip id="veh59" type="veh_passenger" depart="25.78" departLane="best" departSpeed="max" from="5671365#0" to="458177133#4"/>
    <trip id="veh61" type="veh_passenger" depart="26.65" departLane="best" from="-1087048475#1" to="273895450#0"/>
    <trip id="veh62" type="veh_passenger" depart="27.09" departLane="best" from="-420598407#2" to="955205137#0"/>
    <trip id="veh63" type="veh_passenger" depart="27.53" departLane="best" from="700951338#0" to="68674968#0"/>
    <trip id="veh64" type="veh_passenger" depart="27.96" departLane="best" from="194926849#2" to="1021481768#2"/>
    <trip id="veh65" type="veh_passenger" depart="28.40" departLane="best" departSpeed="max" from="698069210#0" to="963567032#0"/>
    <trip id="veh66" type="veh_passenger" depart="28.84" departLane="best" from="1027181003#0" to="438384693#0"/>
    <trip id="veh67" type="veh_passenger" depart="29.28" departLane="best" from="1021481768#2" to="569345537#0"/>
    <trip id="veh68" type="veh_passenger" depart="29.71" departLane="best" from="5671574#0" to="1088325197#0"/>
    <trip id="veh69" type="veh_passenger" depart="30.15" departLane="best" from="420806146#0" to="458180191#0"/>
    <trip id="veh70" type="veh_passenger" depart="30.59" departLane="best" from="144001606#0" to="812949647#4"/>
    <trip id="veh71" type="veh_passenger" depart="31.02" departLane="best" departSpeed="max" from="388240124#0" to="1308875366#2"/>
    <trip id="veh73" type="veh_passenger" depart="31.90" departLane="best" from="991939499#0" to="46522160#11"/>
    <trip id="veh74" type="veh_passenger" depart="32.33" departLane="best" from="388696207#0" to="458166896#0"/>
    <trip id="veh75" type="veh_passenger" depart="32.77" departLane="best" from="1051750426#0" to="1316295725#4"/>
    <trip id="veh76" type="veh_passenger" depart="33.21" departLane="best" departSpeed="max" from="196117051#0" to="464515614#0"/>
    <trip id="veh79" type="veh_passenger" depart="34.52" departLane="best" departSpeed="max" from="1313892238" to="884400294#0"/>
    <trip id="veh80" type="veh_passenger" depart="34.96" departLane="best" from="68668540#0" to="1027130510#0"/>
    <trip id="veh81" type="veh_passenger" depart="35.39" departLane="best" from="1316295725#4" to="496992867#0"/>
    <trip id="veh82" type="veh_passenger" depart="35.83" departLane="best" from="127693383#6" to="1090370026#0"/>
    <trip id="veh83" type="veh_passenger" depart="36.27" departLane="best" departSpeed="max" from="962829746#0" to="460585328#3"/>
    <trip id="veh84" type="veh_passenger" depart="36.70" departLane="best" from="420598366#0" to="619280617#0"/>
    <trip id="veh85" type="veh_passenger" depart="37.14" departLane="best" from="575746067#0" to="125480075#0"/>
    <trip id="veh86" type="veh_passenger" depart="37.58" departLane="best" from="1030123273#3" to="420872177#0"/>
    <trip id="veh87" type="veh_passenger" depart="38.01" departLane="best" departSpeed="max" from="388240124#0" to="420908133#0"/>
    <trip id="veh88" type="veh_passenger" depart="38.45" departLane="best" from="542096279#0" to="497165756#0"/>
    <trip id="veh89" type="veh_passenger" depart="38.89" departLane="best" departSpeed="max" from="989265273#0" to="1041012063#0"/>
    <trip id="veh90" type="veh_passenger" depart="39.32" departLane="best" from="375165666#0" to="32939512#1"/>
    <trip id="veh91" type="veh_passenger" depart="39.76" departLane="best" from="68674961#16" to="1376935153#0"/>
    <trip id="veh92" type="veh_passenger" depart="40.20" departLane="best" departSpeed="max" from="388240124#0" to="194926850#0"/>
    <trip id="veh93" type="veh_passenger" depart="40.64" departLane="best" from="1320235306#0" to="954520389#0"/>
    <trip id="veh94" type="veh_passenger" depart="41.07" departLane="best" from="396444294#18" to="767683108#0"/>
    <trip id="veh95" type="veh_passenger" depart="41.51" departLane="best" departSpeed="max" from="458106346#0" to="1020832418"/>
    <trip id="veh96" type="veh_passenger" depart="41.95" departLane="best" from="992164861" to="708353351#1"/>
    <trip id="veh97" type="veh_passenger" depart="42.38" departLane="best" from="989265268#0" to="954878305#0"/>
    <trip id="veh98" type="veh_passenger" depart="42.82" departLane="best" from="670988060#0" to="118714476#1"/>
    <trip id="veh99" type="veh_passenger" depart="43.26" departLane="best" from="420901681#3" to="1308875366#2"/>
    <trip id="veh100" type="veh_passenger" depart="43.69" departLane="best" from="375165664#0" to="1022184080#0"/>
    <trip id="veh101" type="veh_passenger" depart="44.13" departLane="best" departSpeed="max" from="32939511" to="989270322#0"/>
    <trip id="veh102" type="veh_passenger" depart="44.57" departLane="best" from="144001606#0" to="619280617#0"/>
    <trip id="veh103" type="veh_passenger" depart="45.01" departLane="best" from="420496091#6" to="420598327#0"/>
    <trip id="veh104" type="veh_passenger" depart="45.44" departLane="best" from="968513231#0" to="992144532"/>
    <trip id="veh105" type="veh_passenger" depart="45.88" departLane="best" from="458166894#0" to="5669227#0"/>
    <trip id="veh106" type="veh_passenger" depart="46.32" departLane="best" from="1135620538#0" to="196117042#6"/>
    <trip id="veh108" type="veh_passenger" depart="47.19" departLane="best" from="453367786#3" to="5673461#10"/>
    <trip id="veh109" type="veh_passenger" depart="47.63" departLane="best" from="-747908051#1" to="46432187#0"/>
    <trip id="veh110" type="veh_passenger" depart="48.06" departLane="best" from="1136460179#0" to="968394455#3"/>
    <trip id="veh111" type="veh_passenger" depart="48.50" departLane="best" from="1027130508#0" to="1213301201"/>
    <trip id="veh112" type="veh_passenger" depart="48.94" departLane="best" from="458180196#0" to="497165757#0"/>
    <trip id="veh113" type="veh_passenger" depart="49.37" departLane="best" from="1316295714#0" to="1070126888#0"/>
    <trip id="veh114" type="veh_passenger" depart="49.81" departLane="best" from="742215272#0" to="1376704198#3"/>
    <trip id="veh115" type="veh_passenger" depart="50.25" departLane="best" from="458180196#0" to="46482538#0"/>
    <trip id="veh117" type="veh_passenger" depart="51.12" departLane="best" from="125480075#0" to="554083353#0"/>
    <trip id="veh118" type="veh_passenger" depart="51.56" departLane="best" from="1316295726#0" to="388240124#7"/>
    <trip id="veh119" type="veh_passenger" depart="52.00" departLane="best" from="465256869" to="198595461#13"/>
    <trip id="veh120" type="veh_passenger" depart="52.43" departLane="best" from="195743182#6" to="569345480#0"/>
    <trip id="veh121" type="veh_passenger" depart="52.87" departLane="best" from="1022796561" to="420906743#0"/>
    <trip id="veh122" type="veh_passenger" depart="53.31" departLane="best" departSpeed="max" from="992164860" to="992144532"/>
    <trip id="veh123" type="veh_passenger" depart="53.74" departLane="best" from="1023136586#0" to="1308875366#2"/>
    <trip id="veh125" type="veh_passenger" depart="54.62" departLane="best" from="708353366#0" to="813970416#4"/>
    <trip id="veh126" type="veh_passenger" depart="55.05" departLane="best" from="308322447#2" to="1156946161#0"/>
    <trip id="veh127" type="veh_passenger" depart="55.49" departLane="best" departSpeed="max" from="630828586#0" to="528748997#0"/>
    <trip id="veh128" type="veh_passenger" depart="55.93" departLane="best" departSpeed="max" from="46201646" to="989793293#0"/>
    <trip id="veh129" type="veh_passenger" depart="56.37" departLane="best" from="46492010" to="-167922072#1"/>
    <trip id="veh130" type="veh_passenger" depart="56.80" departLane="best" from="597821266#4" to="198595461#13"/>
    <trip id="veh131" type="veh_passenger" depart="57.24" departLane="best" from="46520833#0" to="962813251#2"/>
    <trip id="veh132" type="veh_passenger" depart="57.68" departLane="best" from="1070126888#0" to="1057153169#0"/>
    <trip id="veh133" type="veh_passenger" depart="58.11" departLane="best" from="1038939784#0" to="458180193#3"/>
    <trip id="veh134" type="veh_passenger" depart="58.55" departLane="best" from="167922077#0" to="464683341#4"/>
    <trip id="veh135" type="veh_passenger" depart="58.99" departLane="best" departSpeed="max" from="511924053#0" to="1287670367"/>
    <trip id="veh136" type="veh_passenger" depart="59.42" departLane="best" from="464683341#4" to="169383517"/>
    <trip id="veh137" type="veh_passenger" depart="59.86" departLane="best" from="420901690#0" to="884400294#0"/>
    <trip id="veh138" type="veh_passenger" depart="60.30" departLane="best" from="658583340#0" to="1034703028#0"/>
    <trip id="veh139" type="veh_passenger" depart="60.73" departLane="best" departSpeed="max" from="388240124#0" to="194926849#2"/>
    <trip id="veh140" type="veh_passenger" depart="61.17" departLane="best" from="-1136952921#1" to="587038081#0"/>
    <trip id="veh142" type="veh_passenger" depart="62.05" departLane="best" from="5670139#0" to="458180192#0"/>
    <trip id="veh143" type="veh_passenger" depart="62.48" departLane="best" departSpeed="max" from="388240124#0" to="-169267538#1"/>
    <trip id="veh144" type="veh_passenger" depart="62.92" departLane="best" from="1023238044" to="813970417#0"/>
    <trip id="veh145" type="veh_passenger" depart="63.36" departLane="best" from="788278348#0" to="458180186#4"/>
    <trip id="veh146" type="veh_passenger" depart="63.79" departLane="best" departSpeed="max" from="630828586#0" to="46334594#6"/>
    <trip id="veh147" type="veh_passenger" depart="64.23" departLane="best" from="1106482769#0" to="1088325195#0"/>
    <trip id="veh148" type="veh_passenger" depart="64.67" departLane="best" from="194926849#3" to="884400294#0"/>
    <trip id="veh149" type="veh_passenger" depart="65.10" departLane="best" from="569345518#0" to="747908053"/>
    <trip id="veh150" type="veh_passenger" depart="65.54" departLane="best" from="767683109" to="1308875366#2"/>
    <trip id="veh151" type="veh_passenger" depart="65.98" departLane="best" from="1320235306#0" to="1049845754#0"/>
    <trip id="veh153" type="veh_passenger" depart="66.85" departLane="best" from="381480256#0" to="46482541#0-AddedOnRampEdge"/>
    <trip id="veh154" type="veh_passenger" depart="67.29" departLane="best" departSpeed="max" from="68674962#0" to="988987066#0"/>
    <trip id="veh155" type="veh_passenger" depart="67.73" departLane="best" from="587038129#0" to="813970416#4"/>
    <trip id="veh156" type="veh_passenger" depart="68.16" departLane="best" from="-420872205#2" to="5671629#0"/>
    <trip id="veh158" type="veh_passenger" depart="69.04" departLane="best" from="569345540#0" to="771759768"/>
    <trip id="veh159" type="veh_passenger" depart="69.47" departLane="best" from="587038129#0" to="194923795#0"/>
    <trip id="veh160" type="veh_passenger" depart="69.91" departLane="best" from="5673561#0" to="1051744070#0"/>
    <trip id="veh161" type="veh_passenger" depart="70.35" departLane="best" from="68674962#96" to="743358445#2"/>
    <trip id="veh162" type="veh_passenger" depart="70.78" departLane="best" from="1313071250#0" to="68668552#0"/>
    <trip id="veh163" type="veh_passenger" depart="71.22" departLane="best" from="569345515#3" to="1316831692#0"/>
    <trip id="veh164" type="veh_passenger" depart="71.66" departLane="best" departSpeed="max" from="-420598415" to="1268207914#0"/>
    <trip id="veh165" type="veh_passenger" depart="72.10" departLane="best" departSpeed="max" from="196116976#0" to="771759769#0"/>
    <trip id="veh166" type="veh_passenger" depart="72.53" departLane="best" from="988984235#0" to="194926850#0"/>
    <trip id="veh167" type="veh_passenger" depart="72.97" departLane="best" from="46481095#2" to="396444293#3"/>
    <trip id="veh168" type="veh_passenger" depart="73.41" departLane="best" departSpeed="max" from="989265273#0" to="458177128#0"/>
    <trip id="veh169" type="veh_passenger" depart="73.84" departLane="best" from="963575583#0" to="1057153169#0"/>
    <trip id="veh170" type="veh_passenger" depart="74.28" departLane="best" departSpeed="max" from="989265271#0" to="1201839381"/>
    <trip id="veh171" type="veh_passenger" depart="74.72" departLane="best" from="986615541#0" to="169383518#2-AddedOnRampEdge"/>
    <trip id="veh172" type="veh_passenger" depart="75.15" departLane="best" from="1040888764#0" to="420872212#0"/>
    <trip id="veh173" type="veh_passenger" depart="75.59" departLane="best" from="542096279#0" to="226041025#0"/>
    <trip id="veh174" type="veh_passenger" depart="76.03" departLane="best" from="460589632#0" to="457948936#0"/>
    <trip id="veh175" type="veh_passenger" depart="76.46" departLane="best" from="336872313#1" to="46139023#0"/>
    <trip id="veh176" type="veh_passenger" depart="76.90" departLane="best" from="1362581216#0" to="541350711#3"/>
    <trip id="veh177" type="veh_passenger" depart="77.34" departLane="best" from="-1088325194" to="954659191#0"/>
    <trip id="veh179" type="veh_passenger" depart="78.21" departLane="best" from="5670247#0" to="496993762#0"/>
    <trip id="veh180" type="veh_passenger" depart="78.65" departLane="best" departSpeed="max" from="308322447#0" to="1027130509#0"/>
    <trip id="veh181" type="veh_passenger" depart="79.09" departLane="best" from="46520921#6" to="320888292"/>
    <trip id="veh182" type="veh_passenger" depart="79.52" departLane="best" from="194926856#0" to="710571392#3"/>
    <trip id="veh183" type="veh_passenger" depart="79.96" departLane="best" from="518451327#4" to="198595461#13"/>
    <trip id="veh184" type="veh_passenger" depart="80.40" departLane="best" from="194926849#3" to="397795463#0"/>
    <trip id="veh185" type="veh_passenger" depart="80.83" departLane="best" from="375165665" to="196117042#0"/>
    <trip id="veh186" type="veh_passenger" depart="81.27" departLane="best" from="1057257710" to="420512231#0"/>
    <trip id="veh187" type="veh_passenger" depart="81.71" departLane="best" from="963575586#3" to="497258108#2"/>
    <trip id="veh188" type="veh_passenger" depart="82.15" departLane="best" from="771939270#0" to="46481095#7"/>
    <trip id="veh189" type="veh_passenger" depart="82.58" departLane="best" departSpeed="max" from="194923801#0" to="458180188#0"/>
    <trip id="veh190" type="veh_passenger" depart="83.02" departLane="best" from="-1086962995#1" to="195743208#0"/>
    <trip id="veh191" type="veh_passenger" depart="83.46" departLane="best" departSpeed="max" from="388240124#0" to="46226332"/>
    <trip id="veh192" type="veh_passenger" depart="83.89" departLane="best" from="46492010" to="420908131#0"/>
    <trip id="veh193" type="veh_passenger" depart="84.33" departLane="best" from="396444293#7" to="1308875366#2"/>
    <trip id="veh194" type="veh_passenger" depart="84.77" departLane="best" from="420598366#4" to="884400294#0"/>
    <trip id="veh195" type="veh_passenger" depart="85.20" departLane="best" from="569345515#6" to="1198594026#0"/>
    <trip id="veh196" type="veh_passenger" depart="85.64" departLane="best" from="1027130512#0" to="458166893#6"/>
    <trip id="veh197" type="veh_passenger" depart="86.08" departLane="best" from="464683339#4" to="32939187#0"/>
    <trip id="veh198" type="veh_passenger" depart="86.51" departLane="best" departSpeed="max" from="60325668" to="569345474#0"/>
    <trip id="veh199" type="veh_passenger" depart="86.95" departLane="best" from="46538335#0" to="1316295725#4"/>
    <trip id="veh200" type="veh_passenger" depart="87.39" departLane="best" from="1316831700#0" to="420908136#0"/>
    <trip id="veh201" type="veh_passenger" depart="87.83" departLane="best" from="671208356#0" to="1027130512#0"/>
    <trip id="veh202" type="veh_passenger" depart="88.26" departLane="best" from="384649120#5" to="46492008"/>
    <trip id="veh203" type="veh_passenger" depart="88.70" departLane="best" departSpeed="max" from="1209567443#0" to="511699185#0"/>
    <trip id="veh204" type="veh_passenger" depart="89.14" departLane="best" from="420901925" to="1364312922"/>
    <trip id="veh205" type="veh_passenger" depart="89.57" departLane="best" from="46492034-AddedOffRampEdge" to="-1320232776#1"/>
    <trip id="veh206" type="veh_passenger" depart="90.01" departLane="best" from="5670867#0" to="584971499#0"/>
    <trip id="veh207" type="veh_passenger" depart="90.45" departLane="best" from="1038784416#0" to="420598332#0"/>
    <trip id="veh208" type="veh_passenger" depart="90.88" departLane="best" from="118714476#1" to="968394452#3"/>
    <trip id="veh209" type="veh_passenger" depart="91.32" departLane="best" departSpeed="max" from="421852030#0" to="1020832418"/>
    <trip id="veh210" type="veh_passenger" depart="91.76" departLane="best" from="1320234485#0" to="710571392#3"/>
    <trip id="veh211" type="veh_passenger" depart="92.19" departLane="best" from="420499931#0" to="671208358#15"/>
    <trip id="veh212" type="veh_passenger" depart="92.63" departLane="best" from="46522006#0" to="989793294#0"/>
    <trip id="veh213" type="veh_passenger" depart="93.07" departLane="best" from="458180196#0" to="963575586#3"/>
    <trip id="veh214" type="veh_passenger" depart="93.51" departLane="best" from="747908052#0" to="46481095#10"/>
    <trip id="veh215" type="veh_passenger" depart="93.94" departLane="best" from="518451327#0" to="455678353#0"/>
    <trip id="veh216" type="veh_passenger" depart="94.38" departLane="best" from="626514137#0" to="458180188#0"/>
    <trip id="veh218" type="veh_passenger" depart="95.25" departLane="best" from="420806145#0" to="169267539#0"/>
    <trip id="veh219" type="veh_passenger" depart="95.69" departLane="best" from="1320232776#0" to="46518731#0"/>
    <trip id="veh220" type="veh_passenger" depart="96.13" departLane="best" from="5671574#0" to="458166897#12"/>
    <trip id="veh221" type="veh_passenger" depart="96.56" departLane="best" from="464516471#0" to="194926847#0"/>
    <trip id="veh222" type="veh_passenger" depart="97.00" departLane="best" from="1025734020#0" to="195743190#0"/>
    <trip id="veh223" type="veh_passenger" depart="97.44" departLane="best" from="167922076#0" to="22914179#0"/>
    <trip id="veh224" type="veh_passenger" depart="97.87" departLane="best" from="448686048#0" to="1106474773#0"/>
    <trip id="veh225" type="veh_passenger" depart="98.31" departLane="best" departSpeed="max" from="1313892238" to="511699182#0"/>
    <trip id="veh226" type="veh_passenger" depart="98.75" departLane="best" from="511699181#0" to="1025734018#0"/>
    <trip id="veh227" type="veh_passenger" depart="99.19" departLane="best" from="381480256#2" to="458180183#0"/>
    <trip id="veh228" type="veh_passenger" depart="99.62" departLane="best" from="384826723#0" to="1308875366#2"/>
    <trip id="veh229" type="veh_passenger" depart="100.06" departLane="best" departSpeed="max" from="388240124#0" to="884400294#0"/>
    <trip id="veh230" type="veh_passenger" depart="100.50" departLane="best" from="458180186#0" to="511699184#0"/>
    <trip id="veh231" type="veh_passenger" depart="100.93" departLane="best" from="68325075-AddedOnRampEdge" to="569345543#0"/>
    <trip id="veh232" type="veh_passenger" depart="101.37" departLane="best" departSpeed="max" from="32939511" to="-1320232776#1"/>
    <trip id="veh233" type="veh_passenger" depart="101.81" departLane="best" from="226041023" to="569345486#0"/>
    <trip id="veh234" type="veh_passenger" depart="102.24" departLane="best" departSpeed="max" from="388240124#0" to="5673461#10"/>
    <trip id="veh235" type="veh_passenger" depart="102.68" departLane="best" from="457948936#0" to="464683339#8"/>
    <trip id="veh237" type="veh_passenger" depart="103.56" departLane="best" from="388240124#3" to="-525729008#5"/>
    <trip id="veh238" type="veh_passenger" depart="103.99" departLane="best" departSpeed="max" from="196117051#0" to="497258108#2"/>
    <trip id="veh240" type="veh_passenger" depart="104.87" departLane="best" departSpeed="max" from="420598349#0" to="1088325195#0"/>
    <trip id="veh241" type="veh_passenger" depart="105.30" departLane="best" from="46334600" to="-46520921#8"/>
    <trip id="veh242" type="veh_passenger" depart="105.74" departLane="best" from="36806683" to="458180199#7"/>
    <trip id="veh243" type="veh_passenger" depart="106.18" departLane="best" from="1087744935#0" to="420907903#0"/>
    <trip id="veh244" type="veh_passenger" depart="106.61" departLane="best" departSpeed="max" from="-587355676#1" to="381477004#0"/>
    <trip id="veh245" type="veh_passenger" depart="107.05" departLane="best" from="127693200#3" to="320888292"/>
    <trip id="veh246" type="veh_passenger" depart="107.49" departLane="best" from="5671276#0" to="381477004#0"/>
    <trip id="veh247" type="veh_passenger" depart="107.92" departLane="best" departSpeed="max" from="5670873#0" to="68674968#0"/>
    <trip id="veh248" type="veh_passenger" depart="108.36" departLane="best" from="1352944235#0" to="1027227129#0"/>
    <trip id="veh249" type="veh_passenger" depart="108.80" departLane="best" from="-420598407#2" to="458177133#4"/>
    <trip id="veh250" type="veh_passenger" depart="109.24" departLane="best" from="993383311" to="34625464"/>
    <trip id="veh252" type="veh_passenger" depart="110.11" departLane="best" from="46490538#0" to="569345499#0"/>
    <trip id="veh253" type="veh_passenger" depart="110.55" departLane="best" from="968394452#0" to="127693383#0"/>
    <trip id="veh254" type="veh_passenger" depart="110.98" departLane="best" departSpeed="max" from="-420598415" to="1150636497#0"/>
    <trip id="veh255" type="veh_passenger" depart="111.42" departLane="best" from="1057257709" to="496992868#0"/>
    <trip id="veh256" type="veh_passenger" depart="111.86" departLane="best" from="458166897#21" to="1313071250#0"/>
    <trip id="veh257" type="veh_passenger" depart="112.29" departLane="best" from="505777313#0" to="569345545#0"/>
    <trip id="veh258" type="veh_passenger" depart="112.73" departLane="best" from="1156946161#0" to="46469722#0"/>
    <trip id="veh260" type="veh_passenger" depart="113.60" departLane="best" departSpeed="max" from="60325668" to="968513231#0"/>
    <trip id="veh261" type="veh_passenger" depart="114.04" departLane="best" from="1040766903" to="-46482539#1"/>
    <trip id="veh262" type="veh_passenger" depart="114.48" departLane="best" from="194926854#0" to="497258108#2"/>
    <trip id="veh263" type="veh_passenger" depart="114.92" departLane="best" from="974611015#0" to="388696207#0"/>
    <trip id="veh264" type="veh_passenger" depart="115.35" departLane="best" departSpeed="max" from="511924053#0" to="1027181004#0"/>
    <trip id="veh265" type="veh_passenger" depart="115.79" departLane="best" from="496993762#0" to="46490540#0"/>
    <trip id="veh266" type="veh_passenger" depart="116.23" departLane="best" from="1031400325#0" to="587038101#0"/>
    <trip id="veh267" type="veh_passenger" depart="116.66" departLane="best" from="671208356#0" to="464683339#8"/>
    <trip id="veh268" type="veh_passenger" depart="117.10" departLane="best" from="1051750426#0" to="989267828#7"/>
    <trip id="veh269" type="veh_passenger" depart="117.54" departLane="best" departSpeed="max" from="5673461#0" to="34625464"/>
    <trip id="veh270" type="veh_passenger" depart="117.97" departLane="best" departSpeed="max" from="388240124#0" to="375165500#0"/>
    <trip id="veh271" type="veh_passenger" depart="118.41" departLane="best" from="420907902#0" to="32939512#1"/>