<?xml version="1.0" encoding="UTF-8"?>

<!-- generated on 2025-05-02 00:04:30 by Eclipse SUMO polyconvert Version 1.9.2
<configuration xmlns:xsi="http://www.w3.org/2001/XMLSchema-instance" xsi:noNamespaceSchemaLocation="http://sumo.dlr.de/xsd/polyconvertConfiguration.xsd">

    <input>
        <net-file value="osm.net.xml"/>
        <osm-files value="osm_bbox.osm.xml"/>
        <osm.keep-full-type value="true"/>
        <type-file value="/opt/homebrew/opt/sumo@1.9.2/share/sumo/data/typemap/osmPolyconvert.typ.xml"/>
    </input>

    <output>
        <output-file value="osm.poly.xml"/>
    </output>

    <processing>
        <poi-layer-offset value="5"/>
    </processing>

    <report>
        <verbose value="true"/>
    </report>

</configuration>
-->

<additional xmlns:xsi="http://www.w3.org/2001/XMLSchema-instance" xsi:noNamespaceSchemaLocation="http://sumo.dlr.de/xsd/additional_file.xsd">
    <location netOffset="-583561.71,-4510218.77" convBoundary="-5443.97,-33936.74,287748.98,88979.18" origBoundary="-74.274312,40.433514,-70.554579,41.489567" projParameter="+proj=utm +zone=18 +ellps=WGS84 +datum=WGS84 +units=m +no_defs"/>

    <poly id="1008242833" type="leisure.track" color="207,245,201" fill="1" layer="-2.00" shape="704.685323,1334.585820 705.442053,1335.604723 706.335999,1336.436450 707.401816,1337.003681 708.469904,1337.371098 709.784830,1337.563689 710.941631,1337.554642 712.491939,1337.094884 790.324139,1295.203990 791.491437,1294.273596 792.187246,1293.226813 792.673649,1292.033318 792.924686,1290.748326 792.940737,1289.338534 792.486942,1287.668044 770.675503,1248.606605 769.825532,1247.619941 768.820444,1246.909065 767.466704,1246.416264 766.092037,1246.278495 764.900317,1246.387055 763.781289,1246.785099 685.272504,1288.746299 684.316901,1289.623606 683.710434,1290.982275 683.319548,1292.687562 683.329096,1294.075440 683.709335,1295.534145 704.685323,1334.585820"/>
    <poly id="1008242833#1" type="sport.running" color="79,230,125" fill="1" layer="-2.00" shape="704.685323,1334.585820 705.442053,1335.604723 706.335999,1336.436450 707.401816,1337.003681 708.469904,1337.371098 709.784830,1337.563689 710.941631,1337.554642 712.491939,1337.094884 790.324139,1295.203990 791.491437,1294.273596 792.187246,1293.226813 792.673649,1292.033318 792.924686,1290.748326 792.940737,1289.338534 792.486942,1287.668044 770.675503,1248.606605 769.825532,1247.619941 768.820444,1246.909065 767.466704,1246.416264 766.092037,1246.278495 764.900317,1246.387055 763.781289,1246.785099 685.272504,1288.746299 684.316901,1289.623606 683.710434,1290.982275 683.319548,1292.687562 683.329096,1294.075440 683.709335,1295.534145 704.685323,1334.585820"/>
    <poly id="1012312364" type="building.apartments" color="255,230,230" fill="1" layer="-1.00" shape="1647.588253,2381.460916 1660.851434,2374.041807 1654.767878,2362.769677 1653.156021,2359.786842 1652.618735,2358.792563 1639.491993,2366.091132 1647.588253,2381.460916"/>
    <poly id="1013232223" type="building.yes" color="255,230,230" fill="1" layer="-1.00" shape="349.521529,1177.900417 347.379895,1173.912700 341.293943,1162.586212 335.364854,1151.572366 329.477330,1140.614506 352.831593,1127.922771 361.284257,1123.366710 368.708760,1119.387424 382.859870,1111.920565 383.736509,1113.540307 393.611108,1131.781981 394.735850,1133.859724 400.814310,1145.097354 403.014265,1149.152361 390.008051,1156.176966 386.694982,1157.960179 370.563100,1166.625826 366.578961,1168.767817 363.333943,1170.507402 349.521529,1177.900417"/>
    <poly id="1020674648" type="building.yes" color="255,230,230" fill="1" layer="-1.00" shape="1578.268056,1321.824724 1577.705736,1320.796860 1577.077028,1319.668314 1569.790334,1320.428351 1568.318110,1320.700092 1566.582144,1321.146438 1564.818302,1321.814507 1562.306973,1322.873668 1560.183849,1323.948392 1558.093856,1325.079008 1556.050434,1326.565430 1554.233289,1328.198780 1552.821487,1329.825685 1551.816177,1331.346238 1551.373011,1332.440264 1551.145486,1333.137088 1551.088840,1333.658240 1551.233399,1334.303828 1551.480283,1334.861774 1551.770523,1335.320298 1552.288187,1335.825843 1552.967907,1336.188922 1553.624085,1336.396299 1554.728071,1336.575515 1556.213859,1336.592585 1557.862085,1336.433885 1559.342619,1336.173340 1560.799231,1335.790396 1562.367501,1335.242203 1564.014173,1334.483969 1565.771356,1333.660392 1567.504617,1332.714417 1569.485884,1331.493736 1570.951298,1330.344845 1572.341627,1329.117375 1573.650089,1327.666921 1578.268056,1321.824724"/>
    <poly id="1020674664" type="leisure.garden" color="207,245,201" fill="1" layer="-2.00" shape="1320.567159,1369.771347 1319.707257,1368.184986 1318.169474,1369.022236 1319.029503,1370.597496 1320.567159,1369.771347"/>
    <poly id="1020674668" type="building.roof" color="255,230,230" fill="1" layer="-1.00" shape="1625.615297,1382.187579 1626.194106,1383.248942 1626.805790,1384.388399 1622.753593,1386.551144 1621.563100,1384.350324 1625.615297,1382.187579"/>
    <poly id="1020674669" type="building.yes" color="255,230,230" fill="1" layer="-1.00" shape="1623.752984,1393.623630 1622.678254,1391.635082 1625.413909,1390.156638 1626.496953,1392.156384 1623.752984,1393.623630"/>
    <poly id="1020674669#1" type="shop.newsagent" color="237,199,255" fill="1" layer="-1.00" shape="1623.752984,1393.623630 1622.678254,1391.635082 1625.413909,1390.156638 1626.496953,1392.156384 1623.752984,1393.623630"/>
    <poly id="1020674670" type="building.roof" color="255,230,230" fill="1" layer="-1.00" shape="1602.217557,1394.119897 1604.582178,1398.476934 1605.375884,1399.940445 1611.908929,1396.429539 1611.106910,1394.954830 1608.742292,1390.597791 1605.454470,1392.369653 1602.217557,1394.119897"/>
    <poly id="1020674690" type="leisure.garden" color="207,245,201" fill="1" layer="-2.00" shape="1291.143237,1318.897180 1291.994709,1320.483441 1293.540813,1319.657383 1292.689214,1318.082222 1291.143237,1318.897180"/>
    <poly id="1020674691" type="building.roof" color="255,230,230" fill="1" layer="-1.00" shape="1381.252225,1398.799628 1379.675666,1403.755331 1383.074992,1404.771297 1393.087625,1407.783773 1394.515293,1402.559913 1393.108296,1402.299531 1389.488208,1401.392051 1385.154121,1400.165525 1381.823856,1399.017123 1381.252225,1398.799628"/>
    <poly id="1020674692" type="building.roof" color="255,230,230" fill="1" layer="-1.00" shape="1337.067788,1317.202846 1332.151273,1315.958576 1333.803365,1310.304292 1336.166866,1302.248987 1340.851893,1303.801468 1339.269446,1308.535067 1338.653319,1310.726239 1337.869290,1313.570515 1337.067788,1317.202846"/>
    <poly id="1021258202" type="building.roof" color="255,230,230" fill="1" layer="-1.00" shape="1154.819603,1402.457531 1149.766953,1393.184953 1142.775226,1396.957468 1145.446243,1401.861861 1091.542621,1430.988480 1088.764500,1425.849738 1081.577785,1429.697796 1081.933303,1430.356886 1086.728751,1439.237902 1093.898956,1435.356354 1147.700492,1406.295198 1154.819603,1402.457531"/>
    <poly id="1021258232" type="man_made.bridge" color="255,230,230" fill="1" layer="-1.00" shape="1251.376834,1494.378082 1245.491445,1483.375062 1246.315382,1482.940406 1247.190352,1482.473029 1253.075741,1493.476051 1252.251804,1493.910705 1251.376834,1494.378082"/>
    <poly id="1021481749" type="building.yes" color="255,230,230" fill="1" layer="-1.00" shape="1417.514757,1498.924206 1416.117889,1496.310272 1418.063156,1495.277877 1418.724620,1496.495603 1419.468465,1497.891909 1417.514757,1498.924206"/>
    <poly id="1021481754" type="amenity.shelter" color="237,199,199" fill="1" layer="-1.00" shape="1446.826194,1488.824421 1445.999846,1487.260633 1453.134780,1483.523352 1453.961000,1485.098241 1446.826194,1488.824421"/>
    <poly id="1021481754#1" type="building.yes" color="255,230,230" fill="1" layer="-1.00" shape="1446.826194,1488.824421 1445.999846,1487.260633 1453.134780,1483.523352 1453.961000,1485.098241 1446.826194,1488.824421"/>
    <poly id="1021481755" type="leisure.garden" color="207,245,201" fill="1" layer="-2.00" shape="1392.768499,1440.031960 1392.097392,1440.390637 1391.575947,1440.950869 1391.272590,1441.635726 1391.204842,1442.389898 1391.390603,1443.124772 1391.805441,1443.762354 1392.399593,1444.224356 1393.114350,1444.476800 1393.874244,1444.474412 1394.594602,1444.238424 1395.190878,1443.778970 1395.611911,1443.139871 1395.797592,1442.409256 1395.738713,1441.653632 1395.442698,1440.961903 1394.925541,1440.411965 1394.262708,1440.049094 1393.512783,1439.918371 1392.768499,1440.031960"/>
    <poly id="1021481761" type="leisure.garden" color="207,245,201" fill="1" layer="-2.00" shape="1419.510436,1488.344509 1418.839332,1488.703183 1418.326330,1489.263511 1418.014531,1489.948270 1417.955222,1490.702538 1418.132537,1491.437316 1418.547369,1492.074899 1419.141516,1492.536904 1419.864709,1492.789448 1420.616157,1492.786965 1421.336511,1492.550980 1421.941354,1492.080524 1422.353818,1491.452431 1422.547942,1490.721914 1422.489066,1489.966289 1422.184615,1489.274461 1421.676032,1488.713518 1421.004762,1488.350548 1420.263157,1488.231019 1419.510436,1488.344509"/>
    <poly id="1021481774" type="leisure.garden" color="207,245,201" fill="1" layer="-2.00" shape="773.679074,1512.849979 772.431789,1510.426612 783.988219,1498.723267 785.296237,1501.003000 778.246977,1508.372297 773.679074,1512.849979"/>
    <poly id="1021481775" type="leisure.garden" color="207,245,201" fill="1" layer="-2.00" shape="767.502104,1528.145057 768.965787,1528.616907 766.507608,1536.149498 765.043927,1535.677649 767.502104,1528.145057"/>
    <poly id="1021481776" type="leisure.garden" color="207,245,201" fill="1" layer="-2.00" shape="762.503051,1528.965227 763.958293,1529.436979 761.500120,1536.969572 760.044880,1536.497820 762.503051,1528.965227"/>
    <poly id="1021536501" type="building.roof" color="255,230,230" fill="1" layer="-1.00" shape="653.408434,1960.864010 654.903812,1960.026145 659.338963,1967.936903 663.741098,1975.780675 662.245722,1976.618539 657.769256,1968.629594 653.408434,1960.864010"/>
    <poly id="1021536515" type="amenity.parking" color="184,184,179" fill="1" layer="-1.00" shape="507.456727,1972.817379 489.513595,1938.874301 484.292446,1929.533656 560.436234,1888.465116 633.201022,1849.135278 661.335200,1902.256989 631.237230,1918.668007 597.800784,1936.906376 589.490438,1922.312541 563.056610,1937.988304 557.557778,1943.443632 553.630047,1947.340297 545.938512,1954.080789 534.865070,1962.004131 526.984465,1966.066875 519.078167,1969.418797 512.536964,1971.509473 507.456727,1972.817379"/>
    <poly id="1021536550" type="building.yes" color="255,230,230" fill="1" layer="-1.00" shape="776.354672,2123.210975 775.330225,2121.245328 777.826940,2119.952597 778.851261,2121.929345 776.354672,2123.210975"/>
    <poly id="1021536554" type="leisure.garden" color="207,245,201" fill="1" layer="-2.00" shape="744.140533,2064.513445 743.884164,2064.044236 742.478356,2061.463635 743.523186,2060.898214 745.185488,2063.936924 744.140533,2064.513445"/>
    <poly id="1021536566" type="leisure.garden" color="207,245,201" fill="1" layer="-2.00" shape="799.447451,2166.639200 791.352843,2151.692303 794.869428,2149.800574 802.955338,2164.769580 799.447451,2166.639200"/>
    <poly id="1021536571" type="building.yes" color="255,230,230" fill="1" layer="-1.00" shape="815.036783,2192.862473 814.012482,2190.885719 816.509055,2189.604102 817.533482,2191.569755 815.036783,2192.862473"/>
    <poly id="1021536577" type="building.service" color="255,230,230" fill="1" layer="-1.00" shape="991.732587,2263.599941 989.107506,2259.129101 989.146212,2258.696558 989.456745,2255.158506 996.880952,2255.576325 997.572220,2255.661932 998.219003,2255.946871 998.762720,2256.386063 999.219367,2257.057408 999.446841,2257.837158 999.439870,2258.447698 999.298099,2259.034495 999.013339,2259.575251 998.440827,2260.179335 997.701905,2260.570578 991.732587,2263.599941"/>
    <poly id="1021536584" type="building.service" color="255,230,230" fill="1" layer="-1.00" shape="972.284569,2214.572760 970.721930,2215.387589 970.173474,2216.102972 969.893608,2216.954646 969.908669,2217.854094 970.211356,2218.701314 970.769046,2219.396015 971.531725,2219.882113 972.407305,2220.091945 973.303060,2220.013351 974.126141,2219.645270 974.783190,2219.031047 975.205792,2218.247615 975.350983,2217.361098 975.200741,2216.471209 974.762238,2215.689051 974.102243,2215.082001 973.270642,2214.717240 972.284569,2214.572760"/>
    <poly id="1021536588" type="landuse.brownfield" color="194,194,130" fill="1" layer="-3.00" shape="925.034437,2327.797700 1038.801910,2265.369763 1042.832408,2265.049428 1046.097916,2266.663240 1055.098266,2272.472581 1063.302718,2282.180809 1071.130365,2293.094880 1086.987070,2311.328242 954.365128,2382.244375 925.034437,2327.797700"/>
    <poly id="1021536589" type="landuse.grass" color="194,194,130" fill="1" layer="-3.00" shape="974.783190,2219.031047 974.126141,2219.645270 973.303060,2220.013351 972.407305,2220.091945 971.531725,2219.882113 970.769046,2219.396015 970.211356,2218.701314 969.908669,2217.854094 969.893608,2216.954646 970.173474,2216.102972 970.721930,2215.387589 911.889246,2247.212464 931.100090,2240.093044 941.285906,2235.979314 956.353018,2229.489918 967.536716,2224.488334 971.853100,2222.050706 973.470311,2220.892332 974.555869,2219.716788 974.783190,2219.031047"/>
    <poly id="1021536590" type="landuse.grass" color="194,194,130" fill="1" layer="-3.00" shape="989.146212,2258.696558 989.456745,2255.158506 972.782175,2254.557398 960.413567,2254.649389 949.314473,2255.199974 914.607823,2259.033985 989.146212,2258.696558"/>
    <poly id="1021536592" type="natural.scree" color="140,196,107" fill="1" layer="-4.00" shape="894.836873,2269.377794 888.957492,2259.340998 911.889246,2247.212464 914.607823,2259.033985 894.836873,2269.377794"/>
    <poly id="1021536595" type="amenity.parking" color="184,184,179" fill="1" layer="-1.00" shape="894.836873,2269.377794 914.607823,2259.033985 989.146212,2258.696558 989.107506,2259.129101 991.732587,2263.599941 931.819625,2295.423422 916.327628,2303.651061 912.576803,2302.398144 899.747095,2278.526470 894.836873,2269.377794"/>
    <poly id="1021569485" type="leisure.park" color="207,245,201" fill="1" layer="-2.00" shape="895.169260,1984.788368 896.112574,1986.464449 896.923107,1987.939178 912.428340,2014.139484 922.828832,2033.420456 926.606933,2040.435716 927.243608,2041.608706 928.285289,2043.541265 904.236846,2056.556304 903.295069,2056.967448 902.264743,2057.000108 901.246782,2056.688741 900.618000,2056.304098 899.972462,2055.908161 899.215963,2054.878134 864.816140,2005.047989 864.488108,2004.200485 864.462314,2003.500754 864.441925,2003.067537 864.722671,2002.138154 865.272904,2001.267353 866.125754,2000.511024 867.358460,1999.759024 895.169260,1984.788368"/>
    <poly id="1021569486" type="building.yes" color="255,230,230" fill="1" layer="-1.00" shape="830.902730,2089.582058 817.968450,2065.198660 797.372658,2076.032937 802.091646,2084.946216 798.295207,2086.945777 806.493669,2102.415664 830.902730,2089.582058"/>
    <poly id="1021569486#1" type="tourism.hotel" color="207,245,201" fill="1" layer="-2.00" shape="830.902730,2089.582058 817.968450,2065.198660 797.372658,2076.032937 802.091646,2084.946216 798.295207,2086.945777 806.493669,2102.415664 830.902730,2089.582058"/>
    <poly id="1021569497" type="amenity.parking" color="184,184,179" fill="1" layer="-1.00" shape="919.346358,2153.706140 896.318038,2166.133315 911.581636,2194.240456 928.368279,2185.028374 936.209644,2199.206491 940.680472,2207.650744 959.902986,2197.300794 946.715337,2172.980872 933.625679,2180.025753 919.346358,2153.706140"/>
    <poly id="1021569498" type="natural.scrub" color="140,196,107" fill="1" layer="-4.00" shape="945.577630,2140.249768 948.081083,2138.368755 951.131812,2136.616112 971.580114,2160.164030 959.896604,2166.048082 945.577630,2140.249768"/>
    <poly id="1021569501" type="natural.scrub" color="140,196,107" fill="1" layer="-4.00" shape="935.272445,2056.388470 923.889901,2062.520263 930.291824,2071.164166 941.382251,2087.677495 949.109363,2102.997841 953.375590,2110.140810 956.484976,2113.606862 965.344254,2108.867405 965.105289,2108.353978 953.396737,2087.570321 949.355739,2082.883504 935.272445,2056.388470"/>
    <poly id="1021569502" type="natural.scrub" color="140,196,107" fill="1" layer="-4.00" shape="904.401857,2080.583296 928.633801,2111.423956 939.233626,2122.835788 935.768142,2124.683624 928.997812,2128.358930 904.401857,2080.583296"/>
    <poly id="1021569503" type="natural.scrub" color="140,196,107" fill="1" layer="-4.00" shape="923.741267,2131.063414 924.911367,2129.877725 906.931315,2094.190104 897.095931,2077.180438 895.498368,2078.094805 909.487513,2104.710812 923.741267,2131.063414"/>
    <poly id="1021569504" type="landuse.brownfield" color="194,194,130" fill="1" layer="-3.00" shape="890.349147,2148.390591 876.029682,2121.870772 882.791295,2118.217523 889.527339,2114.586193 875.364765,2088.367927 895.498368,2078.094805 909.487513,2104.710812 902.598752,2108.406996 916.852522,2134.759585 890.349147,2148.390591"/>
    <poly id="1021569521" type="leisure.garden" color="207,245,201" fill="1" layer="-2.00" shape="889.161634,1999.308131 889.523037,1997.968888 890.163253,1996.610620 890.665247,1995.528330 890.769997,1994.485920 890.410227,1993.460418 889.722983,1993.019598 888.535176,1992.795114 887.280307,1993.269304 886.380818,1994.413675 885.366278,1996.023026 883.972137,1997.605846 882.802783,1998.724937 881.466124,1999.708895 879.667603,2000.476647 877.475003,2001.006761 875.711423,2000.931147 874.132285,2000.968657 872.685675,2001.229722 871.215350,2002.090034 870.196296,2003.355168 869.714695,2004.870677 869.609695,2005.935289 870.016698,2007.261086 870.750287,2008.079907 871.700220,2008.434902 873.675460,2008.457417 875.855061,2008.326832 877.508777,2008.412296 878.733599,2009.092389 880.138813,2010.240830 881.118170,2011.717481 881.725735,2013.223201 881.987590,2014.691673 881.910330,2017.766095 881.559737,2019.638366 881.014528,2020.808981 880.486329,2021.968688 880.480001,2022.523725 880.961744,2023.217551 881.683130,2023.625453 882.400124,2023.678036 883.239471,2023.365641 883.829885,2022.672935 884.591945,2020.994092 885.478890,2018.728258 886.194733,2016.660312 887.142880,2014.950285 887.901271,2013.593363 888.122046,2012.741013 888.117060,2011.697351 887.798611,2010.750036 886.762153,2009.838943 885.418522,2009.213006 884.204546,2008.322094 883.449811,2007.136659 882.814898,2005.808263 882.345303,2004.048766 882.679356,2002.886845 883.529209,2001.653090 884.845316,2000.990862 885.772204,2001.145757 886.162360,2001.727518 886.167346,2002.771179 886.229396,2003.993126 886.791755,2005.020937 887.672006,2005.563877 888.372120,2005.616267 888.949032,2005.367495 889.325128,2004.961002 889.264306,2004.371893 888.973078,2003.258356 888.851181,2002.102340 888.892325,2000.715037 889.161634,1999.308131"/>
    <poly id="1021569522" type="leisure.garden" color="207,245,201" fill="1" layer="-2.00" shape="873.511098,2012.507837 877.804712,2018.740692 878.357907,2019.091166 878.900041,2018.930813 879.108324,2018.433590 879.306685,2017.325633 879.228131,2016.070192 878.946736,2014.834643 878.283842,2013.739073 877.549875,2012.953554 876.552079,2012.353765 875.587669,2011.787663 874.728438,2011.622438 874.103790,2011.615317 873.612176,2011.787348 873.422168,2012.162656 873.511098,2012.507837"/>
    <poly id="1021569523" type="leisure.garden" color="207,245,201" fill="1" layer="-2.00" shape="896.923107,1987.939178 902.580530,1984.883974 904.456222,1987.714213 905.558846,1997.629927 910.844499,2005.705972 919.088015,2010.551716 912.428340,2014.139484 896.923107,1987.939178"/>
    <poly id="1021569524" type="leisure.garden" color="207,245,201" fill="1" layer="-2.00" shape="886.315276,2024.599742 886.937253,2022.619543 887.811454,2020.731038 888.703258,2019.519966 889.606251,2018.808619 890.687862,2018.721031 891.629604,2019.053732 892.295787,2019.860684 893.076690,2021.712548 894.164902,2025.488593 895.089061,2029.584731 895.792229,2033.811575 895.597751,2035.319253 895.089090,2036.246036 894.329093,2037.003421 893.497808,2037.349213 892.601399,2037.483321 891.626148,2037.128034 890.661995,2036.539728 889.667494,2035.651318 888.851523,2034.653921 887.796074,2033.187503 887.112415,2031.692017 886.680979,2030.288225 886.242494,2028.762228 886.068722,2026.972796 886.315276,2024.599742"/>
    <poly id="1021569525" type="leisure.garden" color="207,245,201" fill="1" layer="-2.00" shape="891.848327,2004.312537 891.698614,2002.634401 891.970620,2000.250535 892.315774,1998.855596 892.931300,1997.441535 893.588361,1996.827305 894.394579,1996.459023 895.196115,1996.501469 895.919274,1996.753962 896.832532,1997.363892 901.804770,2004.792431 903.130553,2006.983575 904.712909,2010.365578 904.753050,2011.287516 904.551055,2011.973548 904.015462,2012.300506 903.263056,2012.391846 902.540025,2012.128251 901.676278,2011.618804 900.755341,2010.942173 900.166522,2010.013978 899.874283,2008.989246 899.692414,2007.910261 899.422714,2007.130033 898.656629,2006.199818 897.770089,2005.468068 896.668468,2005.089135 895.596815,2005.043610 894.462277,2005.330433 893.615245,2005.576126 892.790033,2005.389082 892.245025,2005.060905 891.848327,2004.312537"/>
    <poly id="1021569526" type="leisure.garden" color="207,245,201" fill="1" layer="-2.00" shape="897.637741,2028.181610 897.213687,2025.390129 897.036199,2022.446028 897.186359,2020.382736 897.684292,2017.435235 898.353629,2015.744234 899.262406,2015.266100 900.523181,2015.014024 902.271774,2014.922941 903.786125,2015.384295 904.571749,2016.081589 905.066068,2017.153034 905.358519,2018.899411 905.241655,2020.263646 904.874720,2021.347475 903.572546,2023.009055 902.252771,2023.993201 901.084051,2025.056786 899.786182,2026.340942 899.308374,2027.523426 899.127526,2028.576071 898.909661,2029.173104 898.450420,2029.467627 898.046510,2029.351999 897.781328,2028.915991 897.637741,2028.181610"/>
    <poly id="1021569527" type="leisure.garden" color="207,245,201" fill="1" layer="-2.00" shape="912.428340,2014.139484 908.275746,2017.012001 907.640591,2017.926238 907.765483,2019.559682 908.346452,2021.176123 909.858402,2024.068828 911.442564,2026.551577 912.577064,2029.229037 913.112493,2031.877462 913.347711,2034.200499 913.747108,2036.192343 915.330928,2037.964550 916.990125,2039.049281 918.889345,2039.814788 920.733656,2040.213296 921.984214,2040.116538 922.522844,2039.523164 922.509675,2038.457204 921.925292,2037.140482 920.198649,2034.567289 922.828832,2033.420456 912.428340,2014.139484"/>
    <poly id="1021569528" type="leisure.garden" color="207,245,201" fill="1" layer="-2.00" shape="895.898283,2041.539898 895.895362,2039.574780 896.202321,2038.567982 897.281437,2037.958564 898.649539,2037.918653 900.317851,2038.204128 901.320285,2039.137039 901.870021,2040.531079 902.268069,2041.901186 902.554609,2043.425451 903.311615,2044.411075 904.173586,2045.075932 905.687298,2045.592792 907.088783,2045.586569 908.225342,2045.122136 909.392667,2044.180661 910.215171,2043.124232 911.776108,2041.720954 912.760726,2041.254789 914.047201,2040.969702 915.176291,2041.160213 916.064977,2041.703253 916.737824,2042.665714 916.725037,2043.786888 916.142895,2045.234634 915.000512,2046.209699 912.634669,2047.126403 910.539829,2047.968483 909.080229,2048.629071 907.728211,2049.479622 906.342177,2050.351991 904.672814,2050.899166 903.388746,2050.973341 901.872757,2050.656295 900.148776,2050.070426 899.086496,2049.203446 898.177296,2048.238292 897.390195,2046.930363 896.750138,2045.313249 896.089440,2043.285120 895.898283,2041.539898"/>
    <poly id="1021569529" type="leisure.garden" color="207,245,201" fill="1" layer="-2.00" shape="901.320815,2033.907920 901.837293,2035.257172 902.635114,2036.365385 903.899350,2037.290180 905.445310,2037.940633 907.177141,2037.838257 908.278923,2037.462245 909.571728,2036.622121 910.418291,2035.676987 910.632652,2034.646930 910.445634,2033.279229 909.695884,2030.917018 908.799468,2028.830688 907.734821,2027.430776 906.816671,2026.509927 906.100943,2026.346335 905.128815,2026.457373 904.466100,2026.827290 903.808787,2027.463721 902.838099,2028.929242 902.071645,2030.252763 901.499591,2031.556297 901.299709,2032.797462 901.320815,2033.907920"/>
    <poly id="1021569538" type="leisure.park" color="207,245,201" fill="0" layer="-2.00" shape="852.729064,1921.133239 852.370009,1920.784980 851.168217,1920.304993 850.123266,1920.137655 848.795579,1920.333467 821.798292,1935.024911 820.535578,1936.187357"/>
    <poly id="1021569540" type="leisure.park" color="207,245,201" fill="0" layer="-2.00" shape="853.835184,1922.600228 853.163330,1921.548968 852.729064,1921.133239"/>
    <poly id="1021569548" type="landuse.railway" color="194,194,130" fill="1" layer="-3.00" shape="899.942946,2075.525370 923.889901,2062.520263 930.291824,2071.164166 941.382251,2087.677495 949.109363,2102.997841 953.375590,2110.140810 956.484976,2113.606862 951.744962,2116.172893 939.233626,2122.835788 928.633801,2111.423956 904.401857,2080.583296 899.942946,2075.525370"/>
    <poly id="1021569549" type="landuse.railway" color="194,194,130" fill="1" layer="-3.00" shape="853.138230,2011.909267 831.334864,2023.495742 882.141185,2064.164718 887.389572,2061.437906 869.574604,2035.677614 853.138230,2011.909267"/>
    <poly id="1021569550" type="landuse.railway" color="194,194,130" fill="1" layer="-3.00" shape="951.131812,2136.616112 974.840718,2123.008937 975.438260,2123.171187 1013.344789,2171.865099 987.379554,2185.679539 973.057594,2159.414842 971.580114,2160.164030 951.131812,2136.616112"/>
    <poly id="1021580375" type="building.office" color="255,230,230" fill="1" layer="-1.00" shape="854.943798,1900.142066 827.449585,1850.990348 917.255249,1801.121601 944.757388,1850.284852 854.943798,1900.142066"/>
    <poly id="1021580376" type="building.commercial" color="255,230,230" fill="1" layer="-1.00" shape="901.138284,1769.296632 874.727244,1720.645600 781.319172,1770.973455 807.722436,1819.601854 901.138284,1769.296632"/>
    <poly id="1021580401" type="leisure.garden" color="207,245,201" fill="1" layer="-2.00" shape="611.625429,2430.521477 613.188361,2429.673271 608.408408,2420.925947 606.853915,2421.774250 611.625429,2430.521477"/>
    <poly id="1021580407" type="leisure.park" color="207,245,201" fill="0" layer="-2.00" shape="808.155631,1850.504124 807.242221,1849.905306 805.877500,1849.645515 804.988626,1849.857435"/>
    <poly id="1021760821" type="leisure.park" color="207,245,201" fill="1" layer="-2.00" shape="508.490842,1979.146245 511.529053,1978.492393 513.947777,1982.583236 537.410518,1969.804542 541.573065,1967.531450 544.162779,1963.997060 545.871432,1965.193290 563.574804,1955.546706 597.800784,1936.906376 589.490438,1922.312541 563.056610,1937.988304 557.557778,1943.443632 553.630047,1947.340297 545.938512,1954.080789 534.865070,1962.004131 526.984465,1966.066875 519.078167,1969.418797 512.536964,1971.509473 507.456727,1972.817379 507.867072,1975.342227 508.159114,1977.132989 508.490842,1979.146245"/>
    <poly id="1021760822" type="building.service" color="255,230,230" fill="1" layer="-1.00" shape="561.149956,1946.792869 558.689156,1944.178120 564.619501,1938.638877 567.088743,1941.253724 561.149956,1946.792869"/>
    <poly id="1021760830" type="leisure.garden" color="207,245,201" fill="1" layer="-2.00" shape="545.871432,1965.193290 544.162779,1963.997060 561.033740,1954.796207 557.240517,1946.848392 552.336617,1951.955210 547.102763,1956.381053 542.910343,1959.797325 537.974342,1963.271770 532.799093,1966.255008 526.414736,1969.402157 521.418025,1971.532563 516.468688,1973.208320 511.344859,1974.637853 507.867072,1975.342227 507.456727,1972.817379 512.536964,1971.509473 519.078167,1969.418797 526.984465,1966.066875 534.865070,1962.004131 545.938512,1954.080789 553.630047,1947.340297 557.557778,1943.443632 563.574804,1955.546706 545.871432,1965.193290"/>
    <poly id="1021760832" type="natural.scrub" color="140,196,107" fill="1" layer="-4.00" shape="504.629175,1987.639978 500.954089,1980.437378 504.235331,1979.941712 508.490842,1979.146245 511.529053,1978.492393 513.947777,1982.583236 504.629175,1987.639978"/>
    <poly id="1021760844" type="building.transportation" color="255,230,230" fill="1" layer="-1.00" shape="417.437274,1921.348077 410.753081,1924.880502 419.317027,1940.964692 426.009777,1937.421270 421.235685,1928.107944 418.118008,1922.366091 417.437274,1921.348077"/>
    <poly id="1021760845" type="natural.scrub" color="140,196,107" fill="1" layer="-4.00" shape="563.574804,1955.546706 557.557778,1943.443632 563.056610,1937.988304 589.490438,1922.312541 597.800784,1936.906376 563.574804,1955.546706"/>
    <poly id="1021760846" type="landuse.brownfield" color="194,194,130" fill="1" layer="-3.00" shape="311.821594,1881.971177 407.053575,2065.791533 390.139976,2075.069958 292.974417,1891.993984 311.821594,1881.971177"/>
    <poly id="1021760852" type="amenity.bench" color="237,199,199" fill="0" layer="-1.00" shape="551.177615,1957.371006 555.229186,1953.719994"/>
    <poly id="1021760857" type="building.roof" color="255,230,230" fill="1" layer="-1.00" shape="335.891059,1760.453162 332.228298,1753.628268 346.625249,1745.964310 350.287875,1752.800312 335.891059,1760.453162"/>
    <poly id="1021760858" type="building.service" color="255,230,230" fill="1" layer="-1.00" shape="351.588777,1754.225021 344.659535,1741.367960 346.783111,1740.226287 361.936428,1732.126840 368.865524,1744.995017 351.588777,1754.225021"/>
    <poly id="1021760865" type="landuse.grass" color="194,194,130" fill="1" layer="-3.00" shape="404.458846,1946.891338 405.911235,1946.119549 339.105703,1821.751229 337.661738,1822.523127 404.458846,1946.891338"/>