<?xml version="1.0" encoding="UTF-8"?>

<!-- generated on 2025-05-07 12:42:06 by Eclipse SUMO netconvert Version 1.9.2
<configuration xmlns:xsi="http://www.w3.org/2001/XMLSchema-instance" xsi:noNamespaceSchemaLocation="http://sumo.dlr.de/xsd/netconvertConfiguration.xsd">

    <input>
        <type-files value="/opt/homebrew/opt/sumo@1.9.2/share/sumo/data/typemap/osmNetconvert.typ.xml"/>
        <osm-files value="osm_bbox.osm.xml"/>
    </input>

    <output>
        <output-file value="osm.net.xml"/>
        <output.street-names value="true"/>
        <output.original-names value="true"/>
    </output>

    <projection>
        <proj.utm value="true"/>
    </projection>

    <processing>
        <geometry.remove value="true"/>
        <roundabouts.guess value="true"/>
    </processing>

    <tls_building>
        <tls.discard-simple value="true"/>
        <tls.join value="true"/>
        <tls.guess-signals value="true"/>
        <tls.default-type value="actuated"/>
    </tls_building>

    <ramp_guessing>
        <ramps.guess value="true"/>
    </ramp_guessing>

    <edge_removal>
        <keep-edges.by-vclass value="passenger"/>
    </edge_removal>

    <junctions>
        <junctions.join value="true"/>
        <junctions.corner-detail value="5"/>
    </junctions>

    <report>
        <verbose value="true"/>
        <aggregate-warnings value="5"/>
    </report>

</configuration>
-->

<net version="1.9" junctionCornerDetail="5" limitTurnSpeed="5.50" xmlns:xsi="http://www.w3.org/2001/XMLSchema-instance" xsi:noNamespaceSchemaLocation="http://sumo.dlr.de/xsd/net_file.xsd">

    <location netOffset="-583561.71,-4510574.21" convBoundary="0.00,0.00,4787.33,4985.47" origBoundary="-74.041901,40.736548,-73.939832,40.801119" projParameter="+proj=utm +zone=18 +ellps=WGS84 +datum=WGS84 +units=m +no_defs"/>

    <type id="highway.bridleway" priority="1" numLanes="1" speed="2.78" allow="pedestrian" oneway="1" width="2.00"/>
    <type id="highway.bus_guideway" priority="1" numLanes="1" speed="27.78" allow="bus" oneway="1"/>
    <type id="highway.cycleway" priority="1" numLanes="1" speed="8.33" allow="bicycle" oneway="0" width="1.00"/>
    <type id="highway.footway" priority="1" numLanes="1" speed="2.78" allow="pedestrian" oneway="1" width="2.00"/>
    <type id="highway.ford" priority="1" numLanes="1" speed="2.78" allow="army" oneway="0"/>
    <type id="highway.living_street" priority="2" numLanes="1" speed="2.78" disallow="tram rail_urban rail rail_electric rail_fast ship" oneway="0"/>
    <type id="highway.motorway" priority="14" numLanes="2" speed="39.44" allow="private emergency authority army vip passenger hov taxi bus coach delivery truck trailer motorcycle evehicle custom1 custom2" oneway="1"/>
    <type id="highway.motorway_link" priority="9" numLanes="1" speed="22.22" allow="private emergency authority army vip passenger hov taxi bus coach delivery truck trailer motorcycle evehicle custom1 custom2" oneway="1"/>
    <type id="highway.path" priority="1" numLanes="1" speed="2.78" allow="pedestrian bicycle" oneway="0" width="2.00"/>
    <type id="highway.pedestrian" priority="1" numLanes="1" speed="2.78" allow="pedestrian" oneway="1" width="2.00"/>
    <type id="highway.primary" priority="12" numLanes="2" speed="27.78" disallow="tram rail_urban rail rail_electric rail_fast ship" oneway="0"/>
    <type id="highway.primary_link" priority="7" numLanes="1" speed="22.22" disallow="tram rail_urban rail rail_electric rail_fast ship" oneway="0"/>
    <type id="highway.raceway" priority="15" numLanes="2" speed="83.33" allow="vip" oneway="0"/>
    <type id="highway.residential" priority="3" numLanes="1" speed="13.89" disallow="tram rail_urban rail rail_electric rail_fast ship" oneway="0"/>
    <type id="highway.secondary" priority="11" numLanes="1" speed="27.78" disallow="tram rail_urban rail rail_electric rail_fast ship" oneway="0"/>
    <type id="highway.secondary_link" priority="6" numLanes="1" speed="22.22" disallow="tram rail_urban rail rail_electric rail_fast ship" oneway="0"/>
    <type id="highway.service" priority="1" numLanes="1" speed="5.56" allow="pedestrian delivery bicycle" oneway="0"/>
    <type id="highway.stairs" priority="1" numLanes="1" speed="1.39" allow="pedestrian" oneway="1" width="2.00"/>
    <type id="highway.step" priority="1" numLanes="1" speed="1.39" allow="pedestrian" oneway="1" width="2.00"/>
    <type id="highway.steps" priority="1" numLanes="1" speed="1.39" allow="pedestrian" oneway="1" width="2.00"/>
    <type id="highway.tertiary" priority="10" numLanes="1" speed="22.22" disallow="tram rail_urban rail rail_electric rail_fast ship" oneway="0"/>
    <type id="highway.tertiary_link" priority="5" numLanes="1" speed="22.22" disallow="tram rail_urban rail rail_electric rail_fast ship" oneway="0"/>
    <type id="highway.track" priority="1" numLanes="1" speed="5.56" allow="pedestrian motorcycle moped bicycle" oneway="0"/>
    <type id="highway.trunk" priority="13" numLanes="2" speed="27.78" disallow="pedestrian bicycle tram rail_urban rail rail_electric rail_fast ship" oneway="0"/>
    <type id="highway.trunk_link" priority="8" numLanes="1" speed="22.22" disallow="pedestrian bicycle tram rail_urban rail rail_electric rail_fast ship" oneway="0"/>
    <type id="highway.unclassified" priority="4" numLanes="1" speed="13.89" disallow="tram rail_urban rail rail_electric rail_fast ship" oneway="0"/>
    <type id="highway.unsurfaced" priority="1" numLanes="1" speed="8.33" disallow="tram rail_urban rail rail_electric rail_fast ship" oneway="0"/>
    <type id="railway.highspeed" priority="21" numLanes="1" speed="69.44" allow="rail_fast" oneway="1"/>
    <type id="railway.light_rail" priority="19" numLanes="1" speed="27.78" allow="rail_urban" oneway="1"/>
    <type id="railway.preserved" priority="16" numLanes="1" speed="27.78" allow="rail" oneway="1"/>
    <type id="railway.rail" priority="20" numLanes="1" speed="44.44" allow="rail" oneway="1"/>
    <type id="railway.subway" priority="18" numLanes="1" speed="27.78" allow="rail_urban" oneway="1"/>
    <type id="railway.tram" priority="17" numLanes="1" speed="13.89" allow="tram" oneway="1"/>

    <edge id=":100521835_0" function="internal">
        <lane id=":100521835_0_0" index="0" disallow="tram rail_urban rail rail_electric rail_fast ship" speed="19.48" length="8.08" shape="2718.44,1208.90 2720.36,1207.49 2721.46,1206.23 2722.58,1205.00 2724.54,1203.68"/>
    </edge>
    <edge id=":100522479_0" function="internal">
        <lane id=":100522479_0_0" index="0" disallow="tram rail_urban rail rail_electric rail_fast ship" speed="11.18" length="8.58" shape="2666.74,1039.03 2665.49,1036.83 2664.45,1035.41 2663.15,1034.23 2661.10,1032.74"/>
    </edge>
    <edge id=":100522479_1" function="internal">
        <lane id=":100522479_1_0" index="0" disallow="tram rail_urban rail rail_electric rail_fast ship" speed="3.65" length="4.67" shape="2666.74,1039.03 2666.86,1037.60 2667.37,1036.86 2668.27,1036.83 2669.54,1037.50"/>
    </edge>
    <edge id=":100522479_2" function="internal">
        <lane id=":100522479_2_0" index="0" disallow="tram rail_urban rail rail_electric rail_fast ship" speed="11.18" length="12.41" shape="2666.13,1025.77 2667.35,1029.06 2668.75,1031.07 2670.39,1032.97 2672.35,1035.97"/>
        <lane id=":100522479_2_1" index="1" disallow="tram rail_urban rail rail_electric rail_fast ship" speed="11.18" length="12.41" shape="2663.05,1026.63 2664.33,1030.12 2665.77,1032.27 2667.48,1034.32 2669.54,1037.50"/>
    </edge>
    <edge id=":10125247902_0" function="internal">
        <lane id=":10125247902_0_0" index="0" disallow="tram rail_urban rail rail_electric rail_fast ship" speed="11.18" length="8.21" shape="2686.19,1297.58 2684.20,1298.94 2683.05,1300.18 2681.90,1301.42 2679.90,1302.77"/>
        <lane id=":10125247902_0_1" index="1" disallow="tram rail_urban rail rail_electric rail_fast ship" speed="11.18" length="8.21" shape="2686.19,1297.58 2683.97,1298.50 2682.30,1298.77 2680.63,1299.04 2678.39,1299.95"/>
    </edge>
    <edge id=":10125260549_0" function="internal">
        <lane id=":10125260549_0_0" index="0" disallow="tram rail_urban rail rail_electric rail_fast ship" speed="11.18" length="6.66" shape="2942.13,880.93 2943.29,882.48 2944.40,883.32 2945.50,884.16 2946.63,885.73"/>
        <lane id=":10125260549_0_1" index="1" disallow="tram rail_urban rail rail_electric rail_fast ship" speed="11.18" length="6.66" shape="2942.13,880.93 2942.86,882.73 2943.00,884.10 2943.14,885.48 2943.84,887.29"/>
        <lane id=":10125260549_0_2" index="2" disallow="tram rail_urban rail rail_electric rail_fast ship" speed="11.18" length="6.66" shape="2939.34,882.48 2940.06,884.28 2940.20,885.66 2940.34,887.03 2941.04,888.85"/>
        <lane id=":10125260549_0_3" index="3" disallow="tram rail_urban rail rail_electric rail_fast ship" speed="11.18" length="6.66" shape="2936.54,884.03 2937.26,885.84 2937.41,887.21 2937.55,888.59 2938.24,890.41"/>
        <lane id=":10125260549_0_4" index="4" disallow="tram rail_urban rail rail_electric rail_fast ship" speed="11.18" length="6.66" shape="2933.74,885.58 2934.46,887.39 2934.61,888.77 2934.75,890.15 2935.45,891.96"/>
        <lane id=":10125260549_0_5" index="5" disallow="tram rail_urban rail rail_electric rail_fast ship" speed="11.18" length="6.66" shape="2930.94,887.14 2931.67,888.94 2931.81,890.32 2931.95,891.70 2932.65,893.52"/>
    </edge>
    <edge id=":10279559005_0" function="internal">
        <lane id=":10279559005_0_0" index="0" disallow="tram rail_urban rail rail_electric rail_fast ship" speed="11.18" length="8.21" shape="1572.78,1463.58 1574.14,1465.57 1575.39,1466.71 1576.63,1467.86 1577.99,1469.85"/>
        <lane id=":10279559005_0_1" index="1" disallow="tram rail_urban rail rail_electric rail_fast ship" speed="11.18" length="8.21" shape="1569.96,1465.10 1571.32,1467.09 1572.57,1468.24 1573.82,1469.39 1575.18,1471.37"/>
        <lane id=":10279559005_0_2" index="2" disallow="tram rail_urban rail rail_electric rail_fast ship" speed="11.18" length="8.21" shape="1567.15,1466.62 1568.51,1468.61 1569.76,1469.76 1571.00,1470.91 1572.37,1472.90"/>
        <lane id=":10279559005_0_3" index="3" disallow="tram rail_urban rail rail_electric rail_fast ship" speed="11.18" length="8.21" shape="1567.15,1466.62 1568.07,1468.85 1568.35,1470.52 1568.63,1472.19 1569.55,1474.42"/>
    </edge>
    <edge id=":10598594003_0" function="internal">
        <lane id=":10598594003_0_0" index="0" disallow="tram rail_urban rail rail_electric rail_fast ship" speed="11.18" length="8.54" shape="2044.75,1550.18 2042.83,1551.79 2042.00,1553.49 2041.17,1555.19 2039.24,1556.80"/>
        <lane id=":10598594003_0_1" index="1" disallow="tram rail_urban rail rail_electric rail_fast ship" speed="11.18" length="8.54" shape="2043.23,1547.36 2041.30,1548.98 2040.47,1550.68 2039.65,1552.38 2037.72,1553.99"/>
        <lane id=":10598594003_0_2" index="2" disallow="tram rail_urban rail rail_electric rail_fast ship" speed="11.18" length="8.54" shape="2043.23,1547.36 2036.19,1551.18"/>
    </edge>
    <edge id=":10598594003_3" function="internal">
        <lane id=":10598594003_3_0" index="0" disallow="tram rail_urban rail rail_electric rail_fast ship" speed="11.18" length="8.00" shape="2033.14,1545.55 2040.18,1541.74"/>
        <lane id=":10598594003_3_1" index="1" disallow="tram rail_urban rail rail_electric rail_fast ship" speed="11.18" length="8.00" shape="2034.67,1548.36 2041.70,1544.55"/>
    </edge>
    <edge id=":10703807884_0" function="internal">
        <lane id=":10703807884_0_0" index="0" disallow="tram rail_urban rail rail_electric rail_fast ship" speed="12.53" length="8.21" shape="2527.37,1010.05 2525.38,1011.41 2524.23,1012.65 2523.08,1013.90 2521.08,1015.25"/>
        <lane id=":10703807884_0_1" index="1" disallow="tram rail_urban rail rail_electric rail_fast ship" speed="12.53" length="8.21" shape="2527.37,1010.05 2525.14,1010.97 2523.47,1011.24 2521.80,1011.52 2519.57,1012.44"/>
    </edge>
    <edge id=":10703807885_0" function="internal">
        <lane id=":10703807885_0_0" index="0" disallow="tram rail_urban rail rail_electric rail_fast ship" speed="13.89" length="8.20" shape="2404.93,1076.35 2402.94,1077.72 2401.79,1078.97 2400.64,1080.21 2398.64,1081.55"/>
        <lane id=":10703807885_0_1" index="1" disallow="tram rail_urban rail rail_electric rail_fast ship" speed="13.89" length="8.20" shape="2404.93,1076.35 2402.71,1077.28 2401.04,1077.55 2399.37,1077.82 2397.14,1078.72"/>
    </edge>
    <edge id=":10792226610_0" function="internal">
        <lane id=":10792226610_0_0" index="0" disallow="tram rail_urban rail rail_electric rail_fast ship" speed="11.18" length="8.21" shape="850.16,1101.43 852.16,1100.08 853.31,1098.84 854.47,1097.60 856.46,1096.25"/>
    </edge>
    <edge id=":10842005392_0" function="internal">
        <lane id=":10842005392_0_0" index="0" disallow="tram rail_urban rail rail_electric rail_fast ship" speed="11.18" length="8.21" shape="2806.49,2044.69 2808.48,2043.33 2809.63,2042.09 2810.79,2040.85 2812.78,2039.49"/>
        <lane id=":10842005392_0_1" index="1" disallow="tram rail_urban rail rail_electric rail_fast ship" speed="11.18" length="8.21" shape="2806.49,2044.69 2808.72,2043.77 2810.39,2043.50 2812.06,2043.23 2814.29,2042.31"/>
    </edge>
    <edge id=":11003445421_0" function="internal">
        <lane id=":11003445421_0_0" index="0" disallow="tram rail_urban rail rail_electric rail_fast ship" speed="19.48" length="8.83" shape="3341.95,677.04 3343.64,679.16 3345.37,680.20 3347.01,681.29 3348.42,683.54"/>
        <lane id=":11003445421_0_1" index="1" disallow="tram rail_urban rail rail_electric rail_fast ship" speed="19.48" length="8.83" shape="3339.13,678.54 3340.76,680.57 3342.46,681.54 3344.07,682.55 3345.43,684.69"/>
        <lane id=":11003445421_0_2" index="2" disallow="tram rail_urban rail rail_electric rail_fast ship" speed="19.48" length="8.83" shape="3336.30,680.05 3337.89,681.98 3339.55,682.87 3341.12,683.81 3342.45,685.85"/>
        <lane id=":11003445421_0_3" index="3" disallow="tram rail_urban rail rail_electric rail_fast ship" speed="19.48" length="8.83" shape="3333.48,681.56 3335.02,683.39 3336.64,684.21 3338.18,685.07 3339.47,687.01"/>
    </edge>
    <edge id=":11003445421_4" function="internal">
        <lane id=":11003445421_4_0" index="0" disallow="tram rail_urban rail rail_electric rail_fast ship" speed="11.18" length="7.28" shape="3333.48,681.56 3336.68,688.10"/>
    </edge>
    <edge id=":11140783103_0" function="internal">
        <lane id=":11140783103_0_0" index="0" disallow="tram rail_urban rail rail_electric rail_fast ship" speed="12.53" length="0.30" shape="2368.58,742.41 2368.33,742.55"/>
        <lane id=":11140783103_0_1" index="1" disallow="tram rail_urban rail rail_electric rail_fast ship" speed="12.53" length="0.30" shape="2367.08,739.59 2366.82,739.73"/>
        <lane id=":11140783103_0_2" index="2" disallow="tram rail_urban rail rail_electric rail_fast ship" speed="12.53" length="0.30" shape="2365.58,736.76 2365.31,736.90"/>
    </edge>
    <edge id=":11140867101_0" function="internal">
        <lane id=":11140867101_0_0" index="0" disallow="tram rail_urban rail rail_electric rail_fast ship" speed="27.78" length="8.21" shape="3200.76,1922.90 3198.77,1924.26 3197.62,1925.51 3196.47,1926.76 3194.48,1928.11"/>
        <lane id=":11140867101_0_1" index="1" disallow="tram rail_urban rail rail_electric rail_fast ship" speed="27.78" length="8.21" shape="3199.24,1920.09 3197.25,1921.45 3196.10,1922.69 3194.95,1923.94 3192.96,1925.30"/>
        <lane id=":11140867101_0_2" index="2" disallow="tram rail_urban rail rail_electric rail_fast ship" speed="27.78" length="8.21" shape="3199.24,1920.09 3197.01,1921.01 3195.34,1921.29 3193.67,1921.56 3191.44,1922.48"/>
    </edge>
    <edge id=":11141800809_0" function="internal">
        <lane id=":11141800809_0_0" index="0" disallow="tram rail_urban rail rail_electric rail_fast ship" speed="11.18" length="8.53" shape="755.71,1415.98 753.82,1417.64 753.01,1419.34 752.20,1421.02 750.30,1422.65"/>
        <lane id=":11141800809_0_1" index="1" disallow="tram rail_urban rail rail_electric rail_fast ship" speed="11.18" length="8.53" shape="755.71,1415.98 748.72,1419.86"/>
        <lane id=":11141800809_0_2" index="2" disallow="tram rail_urban rail rail_electric rail_fast ship" speed="11.18" length="8.53" shape="755.71,1415.98 753.33,1416.77 751.44,1416.55 749.55,1416.31 747.15,1417.07"/>
    </edge>
    <edge id=":11142777743_0" function="internal">
        <lane id=":11142777743_0_0" index="0" allow="private emergency authority army vip passenger hov taxi bus coach delivery truck trailer motorcycle evehicle custom1 custom2" speed="19.45" length="9.52" shape="1195.57,1656.39 1196.37,1654.07 1195.61,1652.19 1194.54,1650.18 1194.42,1647.44"/>
        <lane id=":11142777743_0_1" index="1" allow="private emergency authority army vip passenger hov taxi bus coach delivery truck trailer motorcycle evehicle custom1 custom2" speed="19.50" length="9.52" shape="1198.65,1657.60 1199.44,1655.27 1198.66,1653.39 1197.57,1651.37 1197.43,1648.61"/>
    </edge>
    <edge id=":11191334801_0" function="internal">
        <lane id=":11191334801_0_0" index="0" disallow="tram rail_urban rail rail_electric rail_fast ship" speed="11.18" length="8.21" shape="1805.27,1897.84 1806.63,1899.83 1807.87,1900.98 1809.12,1902.13 1810.48,1904.12"/>
        <lane id=":11191334801_0_1" index="1" disallow="tram rail_urban rail rail_electric rail_fast ship" speed="11.18" length="8.21" shape="1802.46,1899.36 1803.81,1901.35 1805.06,1902.50 1806.30,1903.65 1807.66,1905.64"/>
        <lane id=":11191334801_0_2" index="2" disallow="tram rail_urban rail rail_electric rail_fast ship" speed="11.18" length="8.21" shape="1802.46,1899.36 1803.37,1901.59 1803.65,1903.26 1803.93,1904.93 1804.84,1907.16"/>
    </edge>
    <edge id=":11191334802_0" function="internal">
        <lane id=":11191334802_0_0" index="0" disallow="tram rail_urban rail rail_electric rail_fast ship" speed="11.18" length="8.18" shape="1464.17,1264.43 1465.55,1266.41 1466.80,1267.56 1468.05,1268.72 1469.39,1270.73"/>
        <lane id=":11191334802_0_1" index="1" disallow="tram rail_urban rail rail_electric rail_fast ship" speed="11.18" length="8.18" shape="1461.37,1265.97 1462.74,1267.94 1463.99,1269.08 1465.22,1270.23 1466.55,1272.22"/>
        <lane id=":11191334802_0_2" index="2" disallow="tram rail_urban rail rail_electric rail_fast ship" speed="11.18" length="8.18" shape="1461.37,1265.97 1462.30,1268.17 1462.57,1269.83 1462.83,1271.49 1463.72,1273.71"/>
    </edge>
    <edge id=":11191334803_0" function="internal">
        <lane id=":11191334803_0_0" index="0" disallow="tram rail_urban rail rail_electric rail_fast ship" speed="11.18" length="8.21" shape="1388.80,1121.95 1390.16,1123.94 1391.40,1125.09 1392.65,1126.24 1394.00,1128.23"/>
        <lane id=":11191334803_0_1" index="1" disallow="tram rail_urban rail rail_electric rail_fast ship" speed="11.18" length="8.21" shape="1385.98,1123.47 1387.34,1125.46 1388.58,1126.61 1389.83,1127.76 1391.19,1129.75"/>
        <lane id=":11191334803_0_2" index="2" disallow="tram rail_urban rail rail_electric rail_fast ship" speed="11.18" length="8.21" shape="1383.17,1124.99 1384.52,1126.98 1385.77,1128.13 1387.01,1129.28 1388.37,1131.27"/>
        <lane id=":11191334803_0_3" index="3" disallow="tram rail_urban rail rail_electric rail_fast ship" speed="11.18" length="8.21" shape="1383.17,1124.99 1384.08,1127.22 1384.36,1128.89 1384.63,1130.56 1385.55,1132.79"/>
    </edge>
    <edge id=":11225165128_0" function="internal">
        <lane id=":11225165128_0_0" index="0" disallow="tram rail_urban rail rail_electric rail_fast ship" speed="11.18" length="8.20" shape="1166.10,1857.57 1167.47,1859.57 1168.72,1860.73 1169.97,1861.89 1171.33,1863.89"/>
        <lane id=":11225165128_0_1" index="1" disallow="tram rail_urban rail rail_electric rail_fast ship" speed="11.18" length="8.20" shape="1163.29,1859.10 1164.66,1861.10 1165.91,1862.25 1167.15,1863.40 1168.51,1865.40"/>
        <lane id=":11225165128_0_2" index="2" disallow="tram rail_urban rail rail_electric rail_fast ship" speed="11.18" length="8.20" shape="1160.48,1860.64 1161.84,1862.62 1163.09,1863.77 1164.34,1864.92 1165.69,1866.92"/>
        <lane id=":11225165128_0_3" index="3" disallow="tram rail_urban rail rail_electric rail_fast ship" speed="11.18" length="8.20" shape="1157.67,1862.17 1159.03,1864.15 1160.28,1865.29 1161.52,1866.44 1162.87,1868.43"/>
        <lane id=":11225165128_0_4" index="4" disallow="tram rail_urban rail rail_electric rail_fast ship" speed="11.18" length="8.20" shape="1154.86,1863.70 1156.22,1865.67 1157.46,1866.81 1158.70,1867.96 1160.05,1869.94"/>
        <lane id=":11225165128_0_5" index="5" disallow="tram rail_urban rail rail_electric rail_fast ship" speed="11.18" length="8.20" shape="1154.86,1863.70 1155.78,1865.91 1156.05,1867.57 1156.32,1869.23 1157.23,1871.45"/>
    </edge>
    <edge id=":11252642361_0" function="internal">
        <lane id=":11252642361_0_0" index="0" allow="private emergency authority army vip passenger hov taxi bus coach delivery truck trailer motorcycle evehicle custom1 custom2" speed="16.70" length="3.20" shape="934.86,1953.00 935.70,1952.56 936.27,1952.24 936.82,1951.89 937.60,1951.35"/>
    </edge>
    <edge id=":11252642361_1" function="internal">
        <lane id=":11252642361_1_0" index="0" disallow="tram rail_urban rail rail_electric rail_fast ship" speed="11.18" length="3.20" shape="936.33,1955.84 939.18,1954.37"/>
        <lane id=":11252642361_1_1" index="1" disallow="tram rail_urban rail rail_electric rail_fast ship" speed="11.18" length="3.20" shape="937.81,1958.68 940.65,1957.21"/>
    </edge>
    <edge id=":11337295598_0" function="internal">
        <lane id=":11337295598_0_0" index="0" disallow="tram rail_urban rail rail_electric rail_fast ship" speed="6.55" length="9.05" shape="3009.63,833.16 3011.15,835.13 3012.93,836.16 3014.97,836.24 3017.28,835.38"/>
    </edge>
    <edge id=":11337295598_1" function="internal">
        <lane id=":11337295598_1_0" index="0" disallow="tram rail_urban rail rail_electric rail_fast ship" speed="11.18" length="11.18" shape="3009.63,833.16 3015.15,842.87"/>
        <lane id=":11337295598_1_1" index="1" disallow="tram rail_urban rail rail_electric rail_fast ship" speed="11.18" length="11.18" shape="3006.85,834.73 3012.37,844.45"/>
        <lane id=":11337295598_1_2" index="2" disallow="tram rail_urban rail rail_electric rail_fast ship" speed="11.18" length="11.18" shape="3004.06,836.31 3009.59,846.04"/>
    </edge>
    <edge id=":11337295598_4" function="internal">
        <lane id=":11337295598_4_0" index="0" disallow="tram rail_urban rail rail_electric rail_fast ship" speed="11.18" length="17.50" shape="3001.95,843.82 3017.28,835.38"/>
    </edge>
    <edge id=":11337295598_5" function="internal">
        <lane id=":11337295598_5_0" index="0" disallow="tram rail_urban rail rail_electric rail_fast ship" speed="7.35" length="11.70" shape="3001.95,843.82 3005.47,842.28 3008.38,841.87 3010.68,842.59 3012.37,844.45"/>
        <lane id=":11337295598_5_1" index="1" disallow="tram rail_urban rail rail_electric rail_fast ship" speed="6.54" length="9.03" shape="3001.95,843.82 3004.25,842.96 3006.29,843.04 3008.07,844.06 3009.59,846.04"/>
    </edge>
    <edge id=":11337295601_0" function="internal">
        <lane id=":11337295601_0_0" index="0" disallow="tram rail_urban rail rail_electric rail_fast ship" speed="6.57" length="9.16" shape="2938.71,871.46 2940.24,873.51 2942.03,874.59 2944.08,874.72 2946.39,873.88"/>
    </edge>
    <edge id=":11337295601_1" function="internal">
        <lane id=":11337295601_1_0" index="0" disallow="tram rail_urban rail rail_electric rail_fast ship" speed="11.18" length="9.91" shape="2935.91,873.01 2937.54,875.44 2938.97,876.88 2940.41,878.33 2942.04,880.75"/>
        <lane id=":11337295601_1_1" index="1" disallow="tram rail_urban rail rail_electric rail_fast ship" speed="11.18" length="9.91" shape="2933.11,874.57 2934.75,876.99 2936.18,878.44 2937.61,879.88 2939.24,882.30"/>
        <lane id=":11337295601_1_2" index="2" disallow="tram rail_urban rail rail_electric rail_fast ship" speed="11.18" length="9.91" shape="2930.32,876.12 2931.95,878.54 2933.38,879.99 2934.81,881.43 2936.44,883.86"/>
        <lane id=":11337295601_1_3" index="3" disallow="tram rail_urban rail rail_electric rail_fast ship" speed="11.18" length="9.91" shape="2927.52,877.67 2929.15,880.09 2930.58,881.54 2932.01,882.99 2933.64,885.41"/>
        <lane id=":11337295601_1_4" index="4" disallow="tram rail_urban rail rail_electric rail_fast ship" speed="11.18" length="9.91" shape="2924.72,879.23 2926.35,881.65 2927.78,883.09 2929.21,884.54 2930.84,886.96"/>
    </edge>
    <edge id=":11337295601_6" function="internal">
        <lane id=":11337295601_6_0" index="0" disallow="tram rail_urban rail rail_electric rail_fast ship" speed="11.18" length="27.12" shape="2922.52,886.75 2946.39,873.88"/>
    </edge>
    <edge id=":11337295601_7" function="internal">
        <lane id=":11337295601_7_0" index="0" disallow="tram rail_urban rail rail_electric rail_fast ship" speed="8.27" length="15.13" shape="2922.52,886.75 2927.86,884.14 2931.96,882.78 2934.82,882.69 2936.44,883.86"/>
        <lane id=":11337295601_7_1" index="1" disallow="tram rail_urban rail rail_electric rail_fast ship" speed="7.47" length="12.17" shape="2922.52,886.75 2926.63,884.81 2929.86,883.93 2932.19,884.14 2933.64,885.41"/>
        <lane id=":11337295601_7_2" index="2" disallow="tram rail_urban rail rail_electric rail_fast ship" speed="6.61" length="9.29" shape="2922.52,886.75 2925.40,885.48 2927.75,885.09 2929.57,885.58 2930.84,886.96"/>
    </edge>
    <edge id=":11337295604_0" function="internal">
        <lane id=":11337295604_0_0" index="0" disallow="tram rail_urban rail rail_electric rail_fast ship" speed="7.30" length="11.61" shape="2879.16,1105.73 2877.52,1103.84 2875.25,1103.08 2872.37,1103.45 2868.87,1104.95"/>
    </edge>
    <edge id=":11337295604_1" function="internal">
        <lane id=":11337295604_1_0" index="0" disallow="tram rail_urban rail rail_electric rail_fast ship" speed="19.48" length="25.14" shape="2879.16,1105.73 2867.32,1084.07"/>
        <lane id=":11337295604_1_1" index="1" disallow="tram rail_urban rail rail_electric rail_fast ship" speed="19.48" length="25.14" shape="2881.97,1104.20 2869.91,1082.14"/>
        <lane id=":11337295604_1_2" index="2" disallow="tram rail_urban rail rail_electric rail_fast ship" speed="19.48" length="25.14" shape="2884.78,1102.67 2872.50,1080.20"/>
    </edge>
    <edge id=":11337295604_4" function="internal">
        <lane id=":11337295604_4_0" index="0" disallow="tram rail_urban rail rail_electric rail_fast ship" speed="8.87" length="17.67" shape="2884.78,1102.67 2881.92,1096.65 2880.62,1091.96 2880.87,1088.57 2882.67,1086.51"/>
        <lane id=":11337295604_4_1" index="1" disallow="tram rail_urban rail rail_electric rail_fast ship" speed="8.15" length="14.75" shape="2884.78,1102.67 2882.59,1097.88 2881.77,1094.06 2882.30,1091.21 2884.20,1089.32"/>
    </edge>
    <edge id=":11337295604_6" function="internal">
        <lane id=":11337295604_6_0" index="0" disallow="tram rail_urban rail rail_electric rail_fast ship" speed="11.18" length="20.94" shape="2887.26,1094.94 2868.87,1104.95"/>
        <lane id=":11337295604_6_1" index="1" disallow="tram rail_urban rail rail_electric rail_fast ship" speed="11.18" length="20.94" shape="2885.73,1092.13 2867.34,1102.14"/>
    </edge>
    <edge id=":11337295604_8" function="internal">
        <lane id=":11337295604_8_0" index="0" disallow="tram rail_urban rail rail_electric rail_fast ship" speed="3.65" length="2.34" shape="2885.73,1092.13 2884.30,1092.00 2883.56,1091.49"/>
    </edge>
    <edge id=":11337295604_15" function="internal">
        <lane id=":11337295604_15_0" index="0" disallow="tram rail_urban rail rail_electric rail_fast ship" speed="3.65" length="2.34" shape="2883.56,1091.49 2883.53,1090.60 2884.20,1089.32"/>
    </edge>
    <edge id=":11337295604_9" function="internal">
        <lane id=":11337295604_9_0" index="0" disallow="tram rail_urban rail rail_electric rail_fast ship" speed="6.51" length="9.07" shape="2862.75,1093.70 2864.66,1092.25 2865.63,1090.49 2865.65,1088.41 2864.73,1086.01"/>
        <lane id=":11337295604_9_1" index="1" disallow="tram rail_urban rail rail_electric rail_fast ship" speed="7.42" length="12.08" shape="2862.75,1093.70 2865.88,1091.56 2867.69,1089.24 2868.17,1086.74 2867.32,1084.07"/>
    </edge>
    <edge id=":11337295604_11" function="internal">
        <lane id=":11337295604_11_0" index="0" disallow="tram rail_urban rail rail_electric rail_fast ship" speed="11.18" length="20.93" shape="2862.75,1093.70 2881.14,1083.70"/>
        <lane id=":11337295604_11_1" index="1" disallow="tram rail_urban rail rail_electric rail_fast ship" speed="11.18" length="20.93" shape="2864.28,1096.52 2882.67,1086.51"/>
        <lane id=":11337295604_11_2" index="2" disallow="tram rail_urban rail rail_electric rail_fast ship" speed="11.18" length="20.93" shape="2865.81,1099.33 2884.20,1089.32"/>
    </edge>
    <edge id=":11337295604_14" function="internal">
        <lane id=":11337295604_14_0" index="0" disallow="tram rail_urban rail rail_electric rail_fast ship" speed="3.65" length="2.34" shape="2865.81,1099.33 2867.25,1099.46 2867.98,1099.97"/>
    </edge>
    <edge id=":11337295604_16" function="internal">
        <lane id=":11337295604_16_0" index="0" disallow="tram rail_urban rail rail_electric rail_fast ship" speed="3.65" length="2.34" shape="2867.98,1099.97 2868.01,1100.86 2867.34,1102.14"/>
    </edge>
    <edge id=":11337295608_0" function="internal">