<?xml version="1.0" encoding="UTF-8"?>

<!-- generated on 2025-05-07 12:42:10 by Eclipse SUMO polyconvert Version 1.9.2
<configuration xmlns:xsi="http://www.w3.org/2001/XMLSchema-instance" xsi:noNamespaceSchemaLocation="http://sumo.dlr.de/xsd/polyconvertConfiguration.xsd">

    <input>
        <net-file value="osm.net.xml"/>
        <osm-files value="osm_bbox.osm.xml"/>
        <osm.keep-full-type value="true"/>
        <type-file value="/opt/homebrew/opt/sumo@1.9.2/share/sumo/data/typemap/osmPolyconvert.typ.xml"/>
    </input>

    <output>
        <output-file value="osm.poly.xml"/>
    </output>

    <processing>
        <poi-layer-offset value="5"/>
    </processing>

    <report>
        <verbose value="true"/>
    </report>

</configuration>
-->

<additional xmlns:xsi="http://www.w3.org/2001/XMLSchema-instance" xsi:noNamespaceSchemaLocation="http://sumo.dlr.de/xsd/additional_file.xsd">
    <location netOffset="-583561.71,-4510574.21" convBoundary="-2705.83,-4493.93,5868.26,6646.28" origBoundary="-74.041902,40.701411,-73.939832,40.801119" projParameter="+proj=utm +zone=18 +ellps=WGS84 +datum=WGS84 +units=m +no_defs"/>

    <poly id="1008242833" type="leisure.track" color="207,245,201" fill="1" layer="-2.00" shape="704.685323,979.145820 705.442053,980.164723 706.335999,980.996450 707.401816,981.563681 708.469904,981.931098 709.784830,982.123689 710.941631,982.114642 712.491939,981.654884 790.324139,939.763990 791.491437,938.833596 792.187246,937.786813 792.673649,936.593318 792.924686,935.308326 792.940737,933.898534 792.486942,932.228044 770.675503,893.166605 769.825532,892.179941 768.820444,891.469065 767.466704,890.976264 766.092037,890.838495 764.900317,890.947055 763.781289,891.345099 685.272504,933.306299 684.316901,934.183606 683.710434,935.542275 683.319548,937.247562 683.329096,938.635440 683.709335,940.094145 704.685323,979.145820"/>
    <poly id="1008242833#1" type="sport.running" color="79,230,125" fill="1" layer="-2.00" shape="704.685323,979.145820 705.442053,980.164723 706.335999,980.996450 707.401816,981.563681 708.469904,981.931098 709.784830,982.123689 710.941631,982.114642 712.491939,981.654884 790.324139,939.763990 791.491437,938.833596 792.187246,937.786813 792.673649,936.593318 792.924686,935.308326 792.940737,933.898534 792.486942,932.228044 770.675503,893.166605 769.825532,892.179941 768.820444,891.469065 767.466704,890.976264 766.092037,890.838495 764.900317,890.947055 763.781289,891.345099 685.272504,933.306299 684.316901,934.183606 683.710434,935.542275 683.319548,937.247562 683.329096,938.635440 683.709335,940.094145 704.685323,979.145820"/>
    <poly id="1012312364" type="building.apartments" color="255,230,230" fill="1" layer="-1.00" shape="1647.588253,2026.020916 1660.851434,2018.601807 1654.767878,2007.329677 1653.156021,2004.346842 1652.618735,2003.352563 1639.491993,2010.651132 1647.588253,2026.020916"/>
    <poly id="1020674648" type="building.yes" color="255,230,230" fill="1" layer="-1.00" shape="1578.268056,966.384724 1577.705736,965.356860 1577.077028,964.228314 1569.790334,964.988351 1568.318110,965.260092 1566.582144,965.706438 1564.818302,966.374507 1562.306973,967.433668 1560.183849,968.508392 1558.093856,969.639008 1556.050434,971.125430 1554.233289,972.758780 1552.821487,974.385685 1551.816177,975.906238 1551.373011,977.000264 1551.145486,977.697088 1551.088840,978.218240 1551.233399,978.863828 1551.480283,979.421774 1551.770523,979.880298 1552.288187,980.385843 1552.967907,980.748922 1553.624085,980.956299 1554.728071,981.135515 1556.213859,981.152585 1557.862085,980.993885 1559.342619,980.733340 1560.799231,980.350396 1562.367501,979.802203 1564.014173,979.043969 1565.771356,978.220392 1567.504617,977.274417 1569.485884,976.053736 1570.951298,974.904845 1572.341627,973.677375 1573.650089,972.226921 1578.268056,966.384724"/>
    <poly id="1020674664" type="leisure.garden" color="207,245,201" fill="1" layer="-2.00" shape="1320.567159,1014.331347 1319.707257,1012.744986 1318.169474,1013.582236 1319.029503,1015.157496 1320.567159,1014.331347"/>
    <poly id="1020674668" type="building.roof" color="255,230,230" fill="1" layer="-1.00" shape="1625.615297,1026.747579 1626.194106,1027.808942 1626.805790,1028.948399 1622.753593,1031.111144 1621.563100,1028.910324 1625.615297,1026.747579"/>
    <poly id="1020674669" type="building.yes" color="255,230,230" fill="1" layer="-1.00" shape="1623.752984,1038.183630 1622.678254,1036.195082 1625.413909,1034.716638 1626.496953,1036.716384 1623.752984,1038.183630"/>
    <poly id="1020674669#1" type="shop.newsagent" color="237,199,255" fill="1" layer="-1.00" shape="1623.752984,1038.183630 1622.678254,1036.195082 1625.413909,1034.716638 1626.496953,1036.716384 1623.752984,1038.183630"/>
    <poly id="1020674670" type="building.roof" color="255,230,230" fill="1" layer="-1.00" shape="1602.217557,1038.679897 1604.582178,1043.036934 1605.375884,1044.500445 1611.908929,1040.989539 1611.106910,1039.514830 1608.742292,1035.157791 1605.454470,1036.929653 1602.217557,1038.679897"/>
    <poly id="1020674690" type="leisure.garden" color="207,245,201" fill="1" layer="-2.00" shape="1291.143237,963.457180 1291.994709,965.043441 1293.540813,964.217383 1292.689214,962.642222 1291.143237,963.457180"/>
    <poly id="1020674691" type="building.roof" color="255,230,230" fill="1" layer="-1.00" shape="1381.252225,1043.359628 1379.675666,1048.315331 1383.074992,1049.331297 1393.087625,1052.343773 1394.515293,1047.119913 1393.108296,1046.859531 1389.488208,1045.952051 1385.154121,1044.725525 1381.823856,1043.577123 1381.252225,1043.359628"/>
    <poly id="1020674692" type="building.roof" color="255,230,230" fill="1" layer="-1.00" shape="1337.067788,961.762846 1332.151273,960.518576 1333.803365,954.864292 1336.166866,946.808987 1340.851893,948.361468 1339.269446,953.095067 1338.653319,955.286239 1337.869290,958.130515 1337.067788,961.762846"/>
    <poly id="1021258202" type="building.roof" color="255,230,230" fill="1" layer="-1.00" shape="1154.819603,1047.017531 1149.766953,1037.744953 1142.775226,1041.517468 1145.446243,1046.421861 1091.542621,1075.548480 1088.764500,1070.409738 1081.577785,1074.257796 1081.933303,1074.916886 1086.728751,1083.797902 1093.898956,1079.916354 1147.700492,1050.855198 1154.819603,1047.017531"/>
    <poly id="1021258232" type="man_made.bridge" color="255,230,230" fill="1" layer="-1.00" shape="1251.376834,1138.938082 1245.491445,1127.935062 1246.315382,1127.500406 1247.190352,1127.033029 1253.075741,1138.036051 1252.251804,1138.470705 1251.376834,1138.938082"/>
    <poly id="1021481749" type="building.yes" color="255,230,230" fill="1" layer="-1.00" shape="1417.514757,1143.484206 1416.117889,1140.870272 1418.063156,1139.837877 1418.724620,1141.055603 1419.468465,1142.451909 1417.514757,1143.484206"/>
    <poly id="1021481754" type="amenity.shelter" color="237,199,199" fill="1" layer="-1.00" shape="1446.826194,1133.384421 1445.999846,1131.820633 1453.134780,1128.083352 1453.961000,1129.658241 1446.826194,1133.384421"/>
    <poly id="1021481754#1" type="building.yes" color="255,230,230" fill="1" layer="-1.00" shape="1446.826194,1133.384421 1445.999846,1131.820633 1453.134780,1128.083352 1453.961000,1129.658241 1446.826194,1133.384421"/>
    <poly id="1021481755" type="leisure.garden" color="207,245,201" fill="1" layer="-2.00" shape="1392.768499,1084.591960 1392.097392,1084.950637 1391.575947,1085.510869 1391.272590,1086.195726 1391.204842,1086.949898 1391.390603,1087.684772 1391.805441,1088.322354 1392.399593,1088.784356 1393.114350,1089.036800 1393.874244,1089.034412 1394.594602,1088.798424 1395.190878,1088.338970 1395.611911,1087.699871 1395.797592,1086.969256 1395.738713,1086.213632 1395.442698,1085.521903 1394.925541,1084.971965 1394.262708,1084.609094 1393.512783,1084.478371 1392.768499,1084.591960"/>
    <poly id="1021481761" type="leisure.garden" color="207,245,201" fill="1" layer="-2.00" shape="1419.510436,1132.904509 1418.839332,1133.263183 1418.326330,1133.823511 1418.014531,1134.508270 1417.955222,1135.262538 1418.132537,1135.997316 1418.547369,1136.634899 1419.141516,1137.096904 1419.864709,1137.349448 1420.616157,1137.346965 1421.336511,1137.110980 1421.941354,1136.640524 1422.353818,1136.012431 1422.547942,1135.281914 1422.489066,1134.526289 1422.184615,1133.834461 1421.676032,1133.273518 1421.004762,1132.910548 1420.263157,1132.791019 1419.510436,1132.904509"/>
    <poly id="1021481774" type="leisure.garden" color="207,245,201" fill="1" layer="-2.00" shape="773.679074,1157.409979 772.431789,1154.986612 783.988219,1143.283267 785.296237,1145.563000 778.246977,1152.932297 773.679074,1157.409979"/>
    <poly id="1021481775" type="leisure.garden" color="207,245,201" fill="1" layer="-2.00" shape="767.502104,1172.705057 768.965787,1173.176907 766.507608,1180.709498 765.043927,1180.237649 767.502104,1172.705057"/>
    <poly id="1021481776" type="leisure.garden" color="207,245,201" fill="1" layer="-2.00" shape="762.503051,1173.525227 763.958293,1173.996979 761.500120,1181.529572 760.044880,1181.057820 762.503051,1173.525227"/>
    <poly id="1021536501" type="building.roof" color="255,230,230" fill="1" layer="-1.00" shape="653.408434,1605.424010 654.903812,1604.586145 659.338963,1612.496903 663.741098,1620.340675 662.245722,1621.178539 657.769256,1613.189594 653.408434,1605.424010"/>
    <poly id="1021536515" type="amenity.parking" color="184,184,179" fill="1" layer="-1.00" shape="507.456727,1617.377379 489.513595,1583.434301 484.292446,1574.093656 560.436234,1533.025116 633.201022,1493.695278 661.335200,1546.816989 631.237230,1563.228007 597.800784,1581.466376 589.490438,1566.872541 563.056610,1582.548304 557.557778,1588.003632 553.630047,1591.900297 545.938512,1598.640789 534.865070,1606.564131 526.984465,1610.626875 519.078167,1613.978797 512.536964,1616.069473 507.456727,1617.377379"/>
    <poly id="1021536550" type="building.yes" color="255,230,230" fill="1" layer="-1.00" shape="776.354672,1767.770975 775.330225,1765.805328 777.826940,1764.512597 778.851261,1766.489345 776.354672,1767.770975"/>
    <poly id="1021536554" type="leisure.garden" color="207,245,201" fill="1" layer="-2.00" shape="744.140533,1709.073445 743.884164,1708.604236 742.478356,1706.023635 743.523186,1705.458214 745.185488,1708.496924 744.140533,1709.073445"/>
    <poly id="1021536566" type="leisure.garden" color="207,245,201" fill="1" layer="-2.00" shape="799.447451,1811.199200 791.352843,1796.252303 794.869428,1794.360574 802.955338,1809.329580 799.447451,1811.199200"/>
    <poly id="1021536571" type="building.yes" color="255,230,230" fill="1" layer="-1.00" shape="815.036783,1837.422473 814.012482,1835.445719 816.509055,1834.164102 817.533482,1836.129755 815.036783,1837.422473"/>
    <poly id="1021536577" type="building.service" color="255,230,230" fill="1" layer="-1.00" shape="991.732587,1908.159941 989.107506,1903.689101 989.146212,1903.256558 989.456745,1899.718506 996.880952,1900.136325 997.572220,1900.221932 998.219003,1900.506871 998.762720,1900.946063 999.219367,1901.617408 999.446841,1902.397158 999.439870,1903.007698 999.298099,1903.594495 999.013339,1904.135251 998.440827,1904.739335 997.701905,1905.130578 991.732587,1908.159941"/>
    <poly id="1021536584" type="building.service" color="255,230,230" fill="1" layer="-1.00" shape="972.284569,1859.132760 970.721930,1859.947589 970.173474,1860.662972 969.893608,1861.514646 969.908669,1862.414094 970.211356,1863.261314 970.769046,1863.956015 971.531725,1864.442113 972.407305,1864.651945 973.303060,1864.573351 974.126141,1864.205270 974.783190,1863.591047 975.205792,1862.807615 975.350983,1861.921098 975.200741,1861.031209 974.762238,1860.249051 974.102243,1859.642001 973.270642,1859.277240 972.284569,1859.132760"/>
    <poly id="1021536588" type="landuse.brownfield" color="194,194,130" fill="1" layer="-3.00" shape="925.034437,1972.357700 1038.801910,1909.929763 1042.832408,1909.609428 1046.097916,1911.223240 1055.098266,1917.032581 1063.302718,1926.740809 1071.130365,1937.654880 1086.987070,1955.888242 954.365128,2026.804375 925.034437,1972.357700"/>
    <poly id="1021536589" type="landuse.grass" color="194,194,130" fill="1" layer="-3.00" shape="974.783190,1863.591047 974.126141,1864.205270 973.303060,1864.573351 972.407305,1864.651945 971.531725,1864.442113 970.769046,1863.956015 970.211356,1863.261314 969.908669,1862.414094 969.893608,1861.514646 970.173474,1860.662972 970.721930,1859.947589 911.889246,1891.772464 931.100090,1884.653044 941.285906,1880.539314 956.353018,1874.049918 967.536716,1869.048334 971.853100,1866.610706 973.470311,1865.452332 974.555869,1864.276788 974.783190,1863.591047"/>
    <poly id="1021536590" type="landuse.grass" color="194,194,130" fill="1" layer="-3.00" shape="989.146212,1903.256558 989.456745,1899.718506 972.782175,1899.117398 960.413567,1899.209389 949.314473,1899.759974 914.607823,1903.593985 989.146212,1903.256558"/>
    <poly id="1021536592" type="natural.scree" color="140,196,107" fill="1" layer="-4.00" shape="894.836873,1913.937794 888.957492,1903.900998 911.889246,1891.772464 914.607823,1903.593985 894.836873,1913.937794"/>
    <poly id="1021536595" type="amenity.parking" color="184,184,179" fill="1" layer="-1.00" shape="894.836873,1913.937794 914.607823,1903.593985 989.146212,1903.256558 989.107506,1903.689101 991.732587,1908.159941 931.819625,1939.983422 916.327628,1948.211061 912.576803,1946.958144 899.747095,1923.086470 894.836873,1913.937794"/>
    <poly id="1021569485" type="leisure.park" color="207,245,201" fill="1" layer="-2.00" shape="895.169260,1629.348368 896.112574,1631.024449 896.923107,1632.499178 912.428340,1658.699484 922.828832,1677.980456 926.606933,1684.995716 927.243608,1686.168706 928.285289,1688.101265 904.236846,1701.116304 903.295069,1701.527448 902.264743,1701.560108 901.246782,1701.248741 900.618000,1700.864098 899.972462,1700.468161 899.215963,1699.438134 864.816140,1649.607989 864.488108,1648.760485 864.462314,1648.060754 864.441925,1647.627537 864.722671,1646.698154 865.272904,1645.827353 866.125754,1645.071024 867.358460,1644.319024 895.169260,1629.348368"/>
    <poly id="1021569486" type="building.yes" color="255,230,230" fill="1" layer="-1.00" shape="830.902730,1734.142058 817.968450,1709.758660 797.372658,1720.592937 802.091646,1729.506216 798.295207,1731.505777 806.493669,1746.975664 830.902730,1734.142058"/>
    <poly id="1021569486#1" type="tourism.hotel" color="207,245,201" fill="1" layer="-2.00" shape="830.902730,1734.142058 817.968450,1709.758660 797.372658,1720.592937 802.091646,1729.506216 798.295207,1731.505777 806.493669,1746.975664 830.902730,1734.142058"/>
    <poly id="1021569497" type="amenity.parking" color="184,184,179" fill="1" layer="-1.00" shape="919.346358,1798.266140 896.318038,1810.693315 911.581636,1838.800456 928.368279,1829.588374 936.209644,1843.766491 940.680472,1852.210744 959.902986,1841.860794 946.715337,1817.540872 933.625679,1824.585753 919.346358,1798.266140"/>
    <poly id="1021569498" type="natural.scrub" color="140,196,107" fill="1" layer="-4.00" shape="945.577630,1784.809768 948.081083,1782.928755 951.131812,1781.176112 971.580114,1804.724030 959.896604,1810.608082 945.577630,1784.809768"/>
    <poly id="1021569501" type="natural.scrub" color="140,196,107" fill="1" layer="-4.00" shape="935.272445,1700.948470 923.889901,1707.080263 930.291824,1715.724166 941.382251,1732.237495 949.109363,1747.557841 953.375590,1754.700810 956.484976,1758.166862 965.344254,1753.427405 965.105289,1752.913978 953.396737,1732.130321 949.355739,1727.443504 935.272445,1700.948470"/>
    <poly id="1021569502" type="natural.scrub" color="140,196,107" fill="1" layer="-4.00" shape="904.401857,1725.143296 928.633801,1755.983956 939.233626,1767.395788 935.768142,1769.243624 928.997812,1772.918930 904.401857,1725.143296"/>
    <poly id="1021569503" type="natural.scrub" color="140,196,107" fill="1" layer="-4.00" shape="923.741267,1775.623414 924.911367,1774.437725 906.931315,1738.750104 897.095931,1721.740438 895.498368,1722.654805 909.487513,1749.270812 923.741267,1775.623414"/>
    <poly id="1021569504" type="landuse.brownfield" color="194,194,130" fill="1" layer="-3.00" shape="890.349147,1792.950591 876.029682,1766.430772 882.791295,1762.777523 889.527339,1759.146193 875.364765,1732.927927 895.498368,1722.654805 909.487513,1749.270812 902.598752,1752.966996 916.852522,1779.319585 890.349147,1792.950591"/>
    <poly id="1021569521" type="leisure.garden" color="207,245,201" fill="1" layer="-2.00" shape="889.161634,1643.868131 889.523037,1642.528888 890.163253,1641.170620 890.665247,1640.088330 890.769997,1639.045920 890.410227,1638.020418 889.722983,1637.579598 888.535176,1637.355114 887.280307,1637.829304 886.380818,1638.973675 885.366278,1640.583026 883.972137,1642.165846 882.802783,1643.284937 881.466124,1644.268895 879.667603,1645.036647 877.475003,1645.566761 875.711423,1645.491147 874.132285,1645.528657 872.685675,1645.789722 871.215350,1646.650034 870.196296,1647.915168 869.714695,1649.430677 869.609695,1650.495289 870.016698,1651.821086 870.750287,1652.639907 871.700220,1652.994902 873.675460,1653.017417 875.855061,1652.886832 877.508777,1652.972296 878.733599,1653.652389 880.138813,1654.800830 881.118170,1656.277481 881.725735,1657.783201 881.987590,1659.251673 881.910330,1662.326095 881.559737,1664.198366 881.014528,1665.368981 880.486329,1666.528688 880.480001,1667.083725 880.961744,1667.777551 881.683130,1668.185453 882.400124,1668.238036 883.239471,1667.925641 883.829885,1667.232935 884.591945,1665.554092 885.478890,1663.288258 886.194733,1661.220312 887.142880,1659.510285 887.901271,1658.153363 888.122046,1657.301013 888.117060,1656.257351 887.798611,1655.310036 886.762153,1654.398943 885.418522,1653.773006 884.204546,1652.882094 883.449811,1651.696659 882.814898,1650.368263 882.345303,1648.608766 882.679356,1647.446845 883.529209,1646.213090 884.845316,1645.550862 885.772204,1645.705757 886.162360,1646.287518 886.167346,1647.331179 886.229396,1648.553126 886.791755,1649.580937 887.672006,1650.123877 888.372120,1650.176267 888.949032,1649.927495 889.325128,1649.521002 889.264306,1648.931893 888.973078,1647.818356 888.851181,1646.662340 888.892325,1645.275037 889.161634,1643.868131"/>
    <poly id="1021569522" type="leisure.garden" color="207,245,201" fill="1" layer="-2.00" shape="873.511098,1657.067837 877.804712,1663.300692 878.357907,1663.651166 878.900041,1663.490813 879.108324,1662.993590 879.306685,1661.885633 879.228131,1660.630192 878.946736,1659.394643 878.283842,1658.299073 877.549875,1657.513554 876.552079,1656.913765 875.587669,1656.347663 874.728438,1656.182438 874.103790,1656.175317 873.612176,1656.347348 873.422168,1656.722656 873.511098,1657.067837"/>
    <poly id="1021569523" type="leisure.garden" color="207,245,201" fill="1" layer="-2.00" shape="896.923107,1632.499178 902.580530,1629.443974 904.456222,1632.274213 905.558846,1642.189927 910.844499,1650.265972 919.088015,1655.111716 912.428340,1658.699484 896.923107,1632.499178"/>
    <poly id="1021569524" type="leisure.garden" color="207,245,201" fill="1" layer="-2.00" shape="886.315276,1669.159742 886.937253,1667.179543 887.811454,1665.291038 888.703258,1664.079966 889.606251,1663.368619 890.687862,1663.281031 891.629604,1663.613732 892.295787,1664.420684 893.076690,1666.272548 894.164902,1670.048593 895.089061,1674.144731 895.792229,1678.371575 895.597751,1679.879253 895.089090,1680.806036 894.329093,1681.563421 893.497808,1681.909213 892.601399,1682.043321 891.626148,1681.688034 890.661995,1681.099728 889.667494,1680.211318 888.851523,1679.213921 887.796074,1677.747503 887.112415,1676.252017 886.680979,1674.848225 886.242494,1673.322228 886.068722,1671.532796 886.315276,1669.159742"/>
    <poly id="1021569525" type="leisure.garden" color="207,245,201" fill="1" layer="-2.00" shape="891.848327,1648.872537 891.698614,1647.194401 891.970620,1644.810535 892.315774,1643.415596 892.931300,1642.001535 893.588361,1641.387305 894.394579,1641.019023 895.196115,1641.061469 895.919274,1641.313962 896.832532,1641.923892 901.804770,1649.352431 903.130553,1651.543575 904.712909,1654.925578 904.753050,1655.847516 904.551055,1656.533548 904.015462,1656.860506 903.263056,1656.951846 902.540025,1656.688251 901.676278,1656.178804 900.755341,1655.502173 900.166522,1654.573978 899.874283,1653.549246 899.692414,1652.470261 899.422714,1651.690033 898.656629,1650.759818 897.770089,1650.028068 896.668468,1649.649135 895.596815,1649.603610 894.462277,1649.890433 893.615245,1650.136126 892.790033,1649.949082 892.245025,1649.620905 891.848327,1648.872537"/>
    <poly id="1021569526" type="leisure.garden" color="207,245,201" fill="1" layer="-2.00" shape="897.637741,1672.741610 897.213687,1669.950129 897.036199,1667.006028 897.186359,1664.942736 897.684292,1661.995235 898.353629,1660.304234 899.262406,1659.826100 900.523181,1659.574024 902.271774,1659.482941 903.786125,1659.944295 904.571749,1660.641589 905.066068,1661.713034 905.358519,1663.459411 905.241655,1664.823646 904.874720,1665.907475 903.572546,1667.569055 902.252771,1668.553201 901.084051,1669.616786 899.786182,1670.900942 899.308374,1672.083426 899.127526,1673.136071 898.909661,1673.733104 898.450420,1674.027627 898.046510,1673.911999 897.781328,1673.475991 897.637741,1672.741610"/>
    <poly id="1021569527" type="leisure.garden" color="207,245,201" fill="1" layer="-2.00" shape="912.428340,1658.699484 908.275746,1661.572001 907.640591,1662.486238 907.765483,1664.119682 908.346452,1665.736123 909.858402,1668.628828 911.442564,1671.111577 912.577064,1673.789037 913.112493,1676.437462 913.347711,1678.760499 913.747108,1680.752343 915.330928,1682.524550 916.990125,1683.609281 918.889345,1684.374788 920.733656,1684.773296 921.984214,1684.676538 922.522844,1684.083164 922.509675,1683.017204 921.925292,1681.700482 920.198649,1679.127289 922.828832,1677.980456 912.428340,1658.699484"/>
    <poly id="1021569528" type="leisure.garden" color="207,245,201" fill="1" layer="-2.00" shape="895.898283,1686.099898 895.895362,1684.134780 896.202321,1683.127982 897.281437,1682.518564 898.649539,1682.478653 900.317851,1682.764128 901.320285,1683.697039 901.870021,1685.091079 902.268069,1686.461186 902.554609,1687.985451 903.311615,1688.971075 904.173586,1689.635932 905.687298,1690.152792 907.088783,1690.146569 908.225342,1689.682136 909.392667,1688.740661 910.215171,1687.684232 911.776108,1686.280954 912.760726,1685.814789 914.047201,1685.529702 915.176291,1685.720213 916.064977,1686.263253 916.737824,1687.225714 916.725037,1688.346888 916.142895,1689.794634 915.000512,1690.769699 912.634669,1691.686403 910.539829,1692.528483 909.080229,1693.189071 907.728211,1694.039622 906.342177,1694.911991 904.672814,1695.459166 903.388746,1695.533341 901.872757,1695.216295 900.148776,1694.630426 899.086496,1693.763446 898.177296,1692.798292 897.390195,1691.490363 896.750138,1689.873249 896.089440,1687.845120 895.898283,1686.099898"/>
    <poly id="1021569529" type="leisure.garden" color="207,245,201" fill="1" layer="-2.00" shape="901.320815,1678.467920 901.837293,1679.817172 902.635114,1680.925385 903.899350,1681.850180 905.445310,1682.500633 907.177141,1682.398257 908.278923,1682.022245 909.571728,1681.182121 910.418291,1680.236987 910.632652,1679.206930 910.445634,1677.839229 909.695884,1675.477018 908.799468,1673.390688 907.734821,1671.990776 906.816671,1671.069927 906.100943,1670.906335 905.128815,1671.017373 904.466100,1671.387290 903.808787,1672.023721 902.838099,1673.489242 902.071645,1674.812763 901.499591,1676.116297 901.299709,1677.357462 901.320815,1678.467920"/>
    <poly id="1021569538" type="leisure.park" color="207,245,201" fill="0" layer="-2.00" shape="852.729064,1565.693239 852.370009,1565.344980 851.168217,1564.864993 850.123266,1564.697655 848.795579,1564.893467 821.798292,1579.584911 820.535578,1580.747357"/>
    <poly id="1021569540" type="leisure.park" color="207,245,201" fill="0" layer="-2.00" shape="853.835184,1567.160228 853.163330,1566.108968 852.729064,1565.693239"/>
    <poly id="1021569548" type="landuse.railway" color="194,194,130" fill="1" layer="-3.00" shape="899.942946,1720.085370 923.889901,1707.080263 930.291824,1715.724166 941.382251,1732.237495 949.109363,1747.557841 953.375590,1754.700810 956.484976,1758.166862 951.744962,1760.732893 939.233626,1767.395788 928.633801,1755.983956 904.401857,1725.143296 899.942946,1720.085370"/>
    <poly id="1021569549" type="landuse.railway" color="194,194,130" fill="1" layer="-3.00" shape="853.138230,1656.469267 831.334864,1668.055742 882.141185,1708.724718 887.389572,1705.997906 869.574604,1680.237614 853.138230,1656.469267"/>
    <poly id="1021569550" type="landuse.railway" color="194,194,130" fill="1" layer="-3.00" shape="951.131812,1781.176112 974.840718,1767.568937 975.438260,1767.731187 1013.344789,1816.425099 987.379554,1830.239539 973.057594,1803.974842 971.580114,1804.724030 951.131812,1781.176112"/>
    <poly id="1021580375" type="building.office" color="255,230,230" fill="1" layer="-1.00" shape="854.943798,1544.702066 827.449585,1495.550348 917.255249,1445.681601 944.757388,1494.844852 854.943798,1544.702066"/>
    <poly id="1021580376" type="building.commercial" color="255,230,230" fill="1" layer="-1.00" shape="901.138284,1413.856632 874.727244,1365.205600 781.319172,1415.533455 807.722436,1464.161854 901.138284,1413.856632"/>
    <poly id="1021580407" type="leisure.park" color="207,245,201" fill="0" layer="-2.00" shape="808.155631,1495.064124 807.242221,1494.465306 805.877500,1494.205515 804.988626,1494.417435"/>
    <poly id="1021760896" type="building.yes" color="255,230,230" fill="1" layer="-1.00" shape="928.750843,1560.686900 917.217401,1539.316899 931.537988,1531.719809 930.472606,1529.642653 956.261113,1515.859285 971.953698,1544.881800 944.984193,1559.328872 941.950436,1553.665460 928.750843,1560.686900"/>
    <poly id="1023817124" type="building.yes" color="255,230,230" fill="1" layer="-1.00" shape="697.766170,1169.569041 698.134863,1168.329793 698.538587,1166.979921 695.063254,1165.963406 694.299280,1168.552622 697.766170,1169.569041"/>
    <poly id="1023817126" type="man_made.bridge" color="255,230,230" fill="1" layer="-1.00" shape="694.299280,1168.552622 695.063254,1165.963406 691.907571,1165.050446 690.140484,1164.530753 687.305613,1174.013064 689.335292,1173.714183 699.492257,1172.208783 699.335164,1171.174495 699.186638,1170.129203 690.365865,1171.438859 691.489204,1167.688002 694.299280,1168.552622"/>
    <poly id="1023817128" type="leisure.garden" color="207,245,201" fill="1" layer="-2.00" shape="781.160553,1137.289214 779.820280,1134.875889 781.901788,1133.733859 783.233618,1136.147088 781.160553,1137.289214"/>
    <poly id="1023817129" type="leisure.garden" color="207,245,201" fill="1" layer="-2.00" shape="758.972360,1138.058045 758.113114,1136.405146 765.586227,1128.885224 772.478616,1121.947113 773.346556,1123.577908 758.972360,1138.058045"/>
    <poly id="1023817130" type="leisure.garden" color="207,245,201" fill="1" layer="-2.00" shape="744.683564,1172.489763 749.361383,1161.318712 751.526168,1155.825574 753.117628,1151.746989 754.126057,1149.193866 759.361345,1149.131327 760.718883,1151.511538 754.012768,1162.115492 752.187892,1164.448382 750.193549,1166.834854 747.724702,1169.371357 744.683564,1172.489763"/>
    <poly id="1023817131" type="leisure.garden" color="207,245,201" fill="1" layer="-2.00" shape="753.445659,1178.562441 752.165742,1176.038786 758.885483,1172.396040 758.596466,1171.826540 758.282755,1171.201249 751.562507,1174.888398 750.595542,1173.056639 762.099851,1154.058549 767.298275,1163.909825 768.688312,1166.401430 769.457726,1167.786856 759.239129,1173.221625 760.165147,1174.941898 753.445659,1178.562441"/>
    <poly id="1034356569" type="leisure.garden" color="207,245,201" fill="1" layer="-2.00" shape="3356.807981,897.352161 3362.280592,908.030126 3365.236413,906.532692 3365.822518,907.671999 3370.162997,905.458063 3366.177805,897.539802 3369.176101,896.020664 3365.451934,888.882624 3357.704021,892.943973 3359.331173,896.027286 3356.807981,897.352161"/>
    <poly id="1034356570" type="leisure.garden" color="207,245,201" fill="1" layer="-2.00" shape="3355.234263,888.274254 3356.266739,890.229262 3364.056473,886.201709 3360.431256,879.264674 3356.923041,881.066493 3353.211571,874.283882 3346.696223,877.638054 3352.804453,889.555817 3355.234263,888.274254"/>
    <poly id="1034356571" type="leisure.playground" color="207,245,201" fill="1" layer="-2.00" shape="3335.098604,875.903300 3331.844960,877.597094 3330.774483,878.161857 3328.718730,879.225770 3310.895610,888.531410 3321.350448,908.515943 3345.604440,895.855160 3335.098604,875.903300"/>
    <poly id="1034356574" type="leisure.garden" color="207,245,201" fill="1" layer="-2.00" shape="3359.637215,910.963418 3363.986262,908.738477 3367.354054,915.306120 3363.022153,917.509055 3359.637215,910.963418"/>