<?xml version="1.0" encoding="UTF-8"?>

<!-- generated on 2025-05-07 12:42:13 by Eclipse SUMO duarouter Version 1.9.2
<configuration xmlns:xsi="http://www.w3.org/2001/XMLSchema-instance" xsi:noNamespaceSchemaLocation="http://sumo.dlr.de/xsd/duarouterConfiguration.xsd">

    <input>
        <net-file value="/opt/homebrew/Cellar/sumo@1.9.2/1.9.2_2/share/sumo/tools/2025-05-07-12-41-55/osm.net.xml"/>
        <route-files value="/opt/homebrew/Cellar/sumo@1.9.2/1.9.2_2/share/sumo/tools/2025-05-07-12-41-55/osm.passenger.trips.xml"/>
    </input>

    <output>
        <output-file value="/opt/homebrew/Cellar/sumo@1.9.2/1.9.2_2/share/sumo/tools/2025-05-07-12-41-55/osm.passenger.trips.xml.tmp"/>
        <write-trips value="true"/>
    </output>

    <time>
        <begin value="0"/>
        <end value="7200"/>
    </time>

    <report>
        <no-warnings value="true"/>
        <ignore-errors value="true"/>
        <no-step-log value="true"/>
    </report>

</configuration>
-->

<routes xmlns:xsi="http://www.w3.org/2001/XMLSchema-instance" xsi:noNamespaceSchemaLocation="http://sumo.dlr.de/xsd/routes_file.xsd">
    <vType id="veh_passenger" vClass="passenger"/>
    <trip id="veh0" type="veh_passenger" depart="0.00" departLane="best" from="464515891#0" to="-420509471#6"/>
    <trip id="veh2" type="veh_passenger" depart="0.52" departLane="best" departSpeed="max" from="68674962#0" to="1027130512#0"/>
    <trip id="veh3" type="veh_passenger" depart="0.78" departLane="best" from="396444293#4" to="-46481744#1"/>
    <trip id="veh4" type="veh_passenger" depart="1.04" departLane="best" departSpeed="max" from="1209567443#0" to="421853646"/>
    <trip id="veh5" type="veh_passenger" depart="1.30" departLane="best" from="464516471#7" to="458166897#12"/>
    <trip id="veh6" type="veh_passenger" depart="1.56" departLane="best" from="1211049194#0" to="458180185#0"/>
    <trip id="veh7" type="veh_passenger" depart="1.82" departLane="best" from="5672951#0" to="-1320232776#1"/>
    <trip id="veh8" type="veh_passenger" depart="2.08" departLane="best" from="5672149#0" to="46521994#0"/>
    <trip id="veh9" type="veh_passenger" depart="2.34" departLane="best" from="226041000#0" to="1088327049#0"/>
    <trip id="veh10" type="veh_passenger" depart="2.60" departLane="best" from="954520389#0" to="195743343#3"/>
    <trip id="veh11" type="veh_passenger" depart="2.86" departLane="best" from="569345546#0" to="458180193#0"/>
    <trip id="veh12" type="veh_passenger" depart="3.12" departLane="best" from="5672155#0" to="496992868#0"/>
    <trip id="veh13" type="veh_passenger" depart="3.38" departLane="best" from="458166892#0" to="968394456#0"/>
    <trip id="veh15" type="veh_passenger" depart="3.90" departLane="best" from="569345515#3" to="460585328#15"/>
    <trip id="veh16" type="veh_passenger" depart="4.16" departLane="best" from="597821266#6" to="458177130#0"/>
    <trip id="veh17" type="veh_passenger" depart="4.42" departLane="best" from="483360105#0" to="-68325079#1"/>
    <trip id="veh19" type="veh_passenger" depart="4.94" departLane="best" from="1027130508#0" to="125479721#0"/>
    <trip id="veh22" type="veh_passenger" depart="5.72" departLane="best" from="1320232776#0" to="771759769#0"/>
    <trip id="veh23" type="veh_passenger" depart="5.98" departLane="best" from="464516471#3" to="458180195#0"/>
    <trip id="veh24" type="veh_passenger" depart="6.24" departLane="best" from="1124078899#0" to="496992868#0"/>
    <trip id="veh25" type="veh_passenger" depart="6.50" departLane="best" departSpeed="max" from="1106484060#0" to="350726028#3"/>
    <trip id="veh26" type="veh_passenger" depart="6.76" departLane="best" from="989265268#0" to="46435657"/>
    <trip id="veh27" type="veh_passenger" depart="7.02" departLane="best" from="458166897#27" to="46492638#0"/>
    <trip id="veh28" type="veh_passenger" depart="7.28" departLane="best" from="569345543#0" to="542257430#0"/>
    <trip id="veh29" type="veh_passenger" depart="7.54" departLane="best" from="1250866957#0" to="-46481744#4"/>
    <trip id="veh30" type="veh_passenger" depart="7.80" departLane="best" from="194926856#0" to="1320232776#0"/>
    <trip id="veh31" type="veh_passenger" depart="8.06" departLane="best" from="1201839361" to="846142552#0"/>
    <trip id="veh32" type="veh_passenger" depart="8.31" departLane="best" from="671208357#0" to="169383518#2-AddedOnRampEdge"/>
    <trip id="veh34" type="veh_passenger" depart="8.83" departLane="best" from="729972918#5" to="420901682#0"/>
    <trip id="veh35" type="veh_passenger" depart="9.09" departLane="best" from="1316831701" to="1312887380"/>
    <trip id="veh36" type="veh_passenger" depart="9.35" departLane="best" from="458166897#30" to="1316831699#0"/>
    <trip id="veh37" type="veh_passenger" depart="9.61" departLane="best" from="458180182#0" to="68674968#12"/>
    <trip id="veh38" type="veh_passenger" depart="9.87" departLane="best" departSpeed="max" from="382740985#0" to="1211049194#0"/>
    <trip id="veh39" type="veh_passenger" depart="10.13" departLane="best" departSpeed="max" from="989793293#0" to="438385431#0"/>
    <trip id="veh40" type="veh_passenger" depart="10.39" departLane="best" from="1027189508#0" to="-696491645#2"/>
    <trip id="veh41" type="veh_passenger" depart="10.65" departLane="best" from="1037772011" to="460585328#9"/>
    <trip id="veh42" type="veh_passenger" depart="10.91" departLane="best" from="5671115#6" to="396444295#0"/>
    <trip id="veh44" type="veh_passenger" depart="11.43" departLane="best" departSpeed="max" from="989793293#0" to="456409017#0"/>
    <trip id="veh45" type="veh_passenger" depart="11.69" departLane="best" from="968394456#0" to="588157336#0"/>
    <trip id="veh46" type="veh_passenger" depart="11.95" departLane="best" from="-167922077#1" to="496986803#3"/>
    <trip id="veh47" type="veh_passenger" depart="12.21" departLane="best" from="46492638#0" to="458166893#6"/>
    <trip id="veh48" type="veh_passenger" depart="12.47" departLane="best" from="1038939784#0" to="420356168#0"/>
    <trip id="veh49" type="veh_passenger" depart="12.73" departLane="best" from="420901681#0" to="95181774#0"/>
    <trip id="veh50" type="veh_passenger" depart="12.99" departLane="best" from="671208357#0" to="1316831700#0"/>
    <trip id="veh51" type="veh_passenger" depart="13.25" departLane="best" from="421850830#0" to="1136460179#0"/>
    <trip id="veh52" type="veh_passenger" depart="13.51" departLane="best" from="729972918#0" to="630828556#0"/>
    <trip id="veh53" type="veh_passenger" depart="13.77" departLane="best" from="169267538#0" to="46334593#0"/>
    <trip id="veh54" type="veh_passenger" depart="14.03" departLane="best" from="458180195#0" to="1088325197#0"/>
    <trip id="veh55" type="veh_passenger" depart="14.29" departLane="best" from="528748997#0" to="458166895#0"/>
    <trip id="veh56" type="veh_passenger" depart="14.55" departLane="best" from="5669356" to="456409017#3"/>
    <trip id="veh57" type="veh_passenger" depart="14.81" departLane="best" from="-1088325196#1" to="195743182#3"/>
    <trip id="veh58" type="veh_passenger" depart="15.07" departLane="best" from="-384649121#7" to="747908053"/>
    <trip id="veh59" type="veh_passenger" depart="15.33" departLane="best" from="682360554#0" to="569345508#0"/>
    <trip id="veh60" type="veh_passenger" depart="15.59" departLane="best" departSpeed="max" from="194920158#0" to="1021068251#0"/>
    <trip id="veh61" type="veh_passenger" depart="15.85" departLane="best" from="682360554#0" to="872052109#0"/>
    <trip id="veh62" type="veh_passenger" depart="16.11" departLane="best" from="1027181003#0" to="420904838#0"/>
    <trip id="veh63" type="veh_passenger" depart="16.37" departLane="best" from="1023236297#0" to="511924978#1"/>
    <trip id="veh64" type="veh_passenger" depart="16.63" departLane="best" from="542096279#0" to="1049920716#0"/>
    <trip id="veh65" type="veh_passenger" depart="16.89" departLane="best" from="420904615#0" to="458166897#18"/>
    <trip id="veh67" type="veh_passenger" depart="17.41" departLane="best" from="396444295#0" to="1207834765#0"/>
    <trip id="veh68" type="veh_passenger" depart="17.67" departLane="best" from="458166893#6" to="496992868#0"/>
    <trip id="veh69" type="veh_passenger" depart="17.93" departLane="best" from="1201643837#0" to="169383518#0"/>
    <trip id="veh70" type="veh_passenger" depart="18.19" departLane="best" from="989793292#0" to="464516471#3"/>
    <trip id="veh71" type="veh_passenger" depart="18.45" departLane="best" from="1049845754#0" to="1212776159#0"/>
    <trip id="veh72" type="veh_passenger" depart="18.71" departLane="best" from="207542284" to="458180185#0"/>
    <trip id="veh73" type="veh_passenger" depart="18.97" departLane="best" from="1250866957#0" to="1211608942#0"/>
    <trip id="veh74" type="veh_passenger" depart="19.23" departLane="best" from="1023238044" to="460606347#0"/>
    <trip id="veh75" type="veh_passenger" depart="19.49" departLane="best" from="1250866957#0" to="708353351#1"/>
    <trip id="veh76" type="veh_passenger" depart="19.75" departLane="best" from="589494596#0" to="1023236297#0"/>
    <trip id="veh77" type="veh_passenger" depart="20.01" departLane="best" from="127693103#3" to="46482541#0"/>
    <trip id="veh78" type="veh_passenger" depart="20.27" departLane="best" from="1203138885#0" to="1051734606#0"/>
    <trip id="veh79" type="veh_passenger" depart="20.53" departLane="best" from="803047266#0" to="458166897#9"/>
    <trip id="veh82" type="veh_passenger" depart="21.31" departLane="best" from="1030123273#0" to="415849235#0"/>
    <trip id="veh83" type="veh_passenger" depart="21.57" departLane="best" from="396444295#0" to="420901921#0"/>
    <trip id="veh84" type="veh_passenger" depart="21.83" departLane="best" from="497165753#6" to="46482609#0"/>
    <trip id="veh85" type="veh_passenger" depart="22.09" departLane="best" from="988977545#13" to="1030123270#0"/>
    <trip id="veh86" type="veh_passenger" depart="22.35" departLane="best" from="384178816#3" to="195743344#0"/>
    <trip id="veh87" type="veh_passenger" depart="22.61" departLane="best" from="597821266#6" to="1313071249#0"/>
    <trip id="veh88" type="veh_passenger" depart="22.87" departLane="best" departSpeed="max" from="1156946159#0" to="420901673#0"/>
    <trip id="veh90" type="veh_passenger" depart="23.39" departLane="best" from="1316295724#0" to="733667933#3"/>
    <trip id="veh91" type="veh_passenger" depart="23.65" departLane="best" from="420496529#0" to="588157337#0"/>
    <trip id="veh92" type="veh_passenger" depart="23.91" departLane="best" from="458166897#18" to="-988980354#1"/>
    <trip id="veh93" type="veh_passenger" depart="24.17" departLane="best" from="989793295#0" to="569345518#0"/>
    <trip id="veh94" type="veh_passenger" depart="24.43" departLane="best" from="968394455#3" to="743358443#0"/>
    <trip id="veh95" type="veh_passenger" depart="24.69" departLane="best" from="573228989#0" to="1124078897#0"/>
    <trip id="veh96" type="veh_passenger" depart="24.94" departLane="best" from="420906743#0" to="1207834765#0"/>
    <trip id="veh97" type="veh_passenger" depart="25.20" departLane="best" from="384178816#3" to="1021068251#0"/>
    <trip id="veh98" type="veh_passenger" depart="25.46" departLane="best" from="36801165#0" to="988956476"/>
    <trip id="veh100" type="veh_passenger" depart="25.98" departLane="best" from="420901681#3" to="396444295#0"/>
    <trip id="veh101" type="veh_passenger" depart="26.24" departLane="best" from="954520389#0" to="989791207#0"/>
    <trip id="veh102" type="veh_passenger" depart="26.50" departLane="best" from="458166897#24" to="496986803#0"/>
    <trip id="veh103" type="veh_passenger" depart="26.76" departLane="best" from="1088327051" to="167922070#0"/>
    <trip id="veh104" type="veh_passenger" depart="27.02" departLane="best" from="968394455#3" to="458177133#0"/>
    <trip id="veh105" type="veh_passenger" depart="27.28" departLane="best" from="458166897#0" to="511699175#0"/>
    <trip id="veh106" type="veh_passenger" depart="27.54" departLane="best" from="1021481767#1" to="458180182#0"/>
    <trip id="veh107" type="veh_passenger" depart="27.80" departLane="best" departSpeed="max" from="421853647" to="569345544#0"/>
    <trip id="veh108" type="veh_passenger" depart="28.06" departLane="best" from="1106482765#3" to="954520389#0"/>
    <trip id="veh109" type="veh_passenger" depart="28.32" departLane="best" from="1027130508#0" to="1156946157#0"/>
    <trip id="veh110" type="veh_passenger" depart="28.58" departLane="best" from="458180188#0" to="46490537#1"/>
    <trip id="veh111" type="veh_passenger" depart="28.84" departLane="best" from="1272613980#0" to="1043336433#0"/>
    <trip id="veh113" type="veh_passenger" depart="29.36" departLane="best" from="458180187#6" to="460585328#15"/>
    <trip id="veh114" type="veh_passenger" depart="29.62" departLane="best" from="396444293#1" to="458180182#0"/>
    <trip id="veh115" type="veh_passenger" depart="29.88" departLane="best" from="441405436#0" to="771759767"/>
    <trip id="veh116" type="veh_passenger" depart="30.14" departLane="best" from="1201651432#0" to="496983399#0"/>
    <trip id="veh119" type="veh_passenger" depart="30.92" departLane="best" from="195743182#0" to="511699181#0"/>
    <trip id="veh120" type="veh_passenger" depart="31.18" departLane="best" departSpeed="max" from="1025734020#0" to="420901682#0"/>
    <trip id="veh121" type="veh_passenger" depart="31.44" departLane="best" from="989793294#0" to="989791207#0"/>
    <trip id="veh122" type="veh_passenger" depart="31.70" departLane="best" departSpeed="max" from="1025734020#0" to="1207834765#0"/>
    <trip id="veh123" type="veh_passenger" depart="31.96" departLane="best" from="1316831701" to="767683114#0"/>
    <trip id="veh124" type="veh_passenger" depart="32.22" departLane="best" from="68325075-AddedOnRampEdge" to="671208358#3"/>
    <trip id="veh125" type="veh_passenger" depart="32.48" departLane="best" from="32939046#0" to="1088327053"/>
    <trip id="veh126" type="veh_passenger" depart="32.74" departLane="best" from="569345536#0" to="46522007#0"/>
    <trip id="veh127" type="veh_passenger" depart="33.00" departLane="best" from="458180196#0" to="988980354#0"/>
    <trip id="veh128" type="veh_passenger" depart="33.26" departLane="best" departSpeed="max" from="46469721" to="-1320290376#1"/>
    <trip id="veh129" type="veh_passenger" depart="33.52" departLane="best" from="5673626#0" to="167922072#0"/>
    <trip id="veh130" type="veh_passenger" depart="33.78" departLane="best" from="1051750425#0" to="1040888764#0"/>
    <trip id="veh131" type="veh_passenger" depart="34.04" departLane="best" from="1034529064#0" to="458166897#21"/>
    <trip id="veh132" type="veh_passenger" depart="34.30" departLane="best" from="1352944235#0" to="458180193#3"/>
    <trip id="veh133" type="veh_passenger" depart="34.56" departLane="best" from="496986803#7" to="1201651435#3"/>
    <trip id="veh134" type="veh_passenger" depart="34.82" departLane="best" from="46226335#0" to="1316831700#0"/>
    <trip id="veh135" type="veh_passenger" depart="35.08" departLane="best" from="420906755#0" to="708353351#1"/>
    <trip id="veh136" type="veh_passenger" depart="35.34" departLane="best" from="569345545#0" to="1027181006#0"/>
    <trip id="veh137" type="veh_passenger" depart="35.60" departLane="best" from="396444295#0" to="1361048663"/>
    <trip id="veh138" type="veh_passenger" depart="35.86" departLane="best" from="-1272613980#2" to="528748997#8"/>
    <trip id="veh139" type="veh_passenger" depart="36.12" departLane="best" from="46334593#0" to="1316831695#0"/>
    <trip id="veh140" type="veh_passenger" depart="36.38" departLane="best" from="511699175#0" to="458166897#21"/>
    <trip id="veh141" type="veh_passenger" depart="36.64" departLane="best" from="396444295#7" to="-1321771943#2"/>
    <trip id="veh142" type="veh_passenger" depart="36.90" departLane="best" from="1025734022#0" to="68325075"/>
    <trip id="veh143" type="veh_passenger" depart="37.16" departLane="best" from="708353352#3" to="458166897#12"/>
    <trip id="veh144" type="veh_passenger" depart="37.42" departLane="best" from="569345537#0" to="458177133#8"/>
    <trip id="veh145" type="veh_passenger" depart="37.68" departLane="best" from="1087744935#0" to="1049888072#0"/>
    <trip id="veh146" type="veh_passenger" depart="37.94" departLane="best" from="194926847#0" to="68674968#4"/>
    <trip id="veh147" type="veh_passenger" depart="38.20" departLane="best" departSpeed="max" from="5671349#0" to="588157336#0"/>
    <trip id="veh148" type="veh_passenger" depart="38.46" departLane="best" from="68674968#4" to="1202082365#0"/>
    <trip id="veh149" type="veh_passenger" depart="38.72" departLane="best" from="1316295724#0" to="1030123275#0"/>
    <trip id="veh150" type="veh_passenger" depart="38.98" departLane="best" from="5670106#0" to="68325075-AddedOnRampEdge"/>
    <trip id="veh151" type="veh_passenger" depart="39.24" departLane="best" from="384649120#8" to="460585328#18"/>
    <trip id="veh152" type="veh_passenger" depart="39.50" departLane="best" from="1088327051" to="767683107#0"/>
    <trip id="veh153" type="veh_passenger" depart="39.76" departLane="best" departSpeed="max" from="60325668" to="968513229#0"/>
    <trip id="veh154" type="veh_passenger" depart="40.02" departLane="best" from="5672954#0" to="682360554#0"/>
    <trip id="veh155" type="veh_passenger" depart="40.28" departLane="best" from="-420904618#3" to="497165753#9"/>
    <trip id="veh156" type="veh_passenger" depart="40.54" departLane="best" from="195743343#0" to="767683108#0"/>
    <trip id="veh157" type="veh_passenger" depart="40.80" departLane="best" from="5672118#0" to="589494595#0"/>
    <trip id="veh158" type="veh_passenger" depart="41.06" departLane="best" from="5672954#0" to="1316831701"/>
    <trip id="veh159" type="veh_passenger" depart="41.31" departLane="best" from="5670867#0" to="1036712190"/>
    <trip id="veh161" type="veh_passenger" depart="41.83" departLane="best" from="1211608942#0" to="5673497#0"/>
    <trip id="veh162" type="veh_passenger" depart="42.09" departLane="best" from="420901917#0" to="169267541#0"/>
    <trip id="veh163" type="veh_passenger" depart="42.35" departLane="best" from="5671315#0" to="1224490986#0"/>
    <trip id="veh164" type="veh_passenger" depart="42.61" departLane="best" from="-420509471#6" to="1198594027#0"/>
    <trip id="veh165" type="veh_passenger" depart="42.87" departLane="best" from="195743336#3" to="589494596#0"/>
    <trip id="veh167" type="veh_passenger" depart="43.39" departLane="best" from="464516471#0" to="380145816#0"/>
    <trip id="veh168" type="veh_passenger" depart="43.65" departLane="best" from="974611019#0" to="458166893#0"/>
    <trip id="veh169" type="veh_passenger" depart="43.91" departLane="best" from="814278019#0" to="1040766903"/>
    <trip id="veh170" type="veh_passenger" depart="44.17" departLane="best" from="968394456#0" to="1136460179#0"/>
    <trip id="veh171" type="veh_passenger" depart="44.43" departLane="best" from="966105510#0" to="1316831701"/>
    <trip id="veh172" type="veh_passenger" depart="44.69" departLane="best" from="1036712190" to="420356168#0"/>
    <trip id="veh173" type="veh_passenger" depart="44.95" departLane="best" from="497165753#3" to="169383518#2-AddedOnRampEdge"/>
    <trip id="veh174" type="veh_passenger" depart="45.21" departLane="best" from="458180193#6" to="438385431#3"/>
    <trip id="veh175" type="veh_passenger" depart="45.47" departLane="best" from="36806670-AddedOnRampEdge" to="458177129#0"/>
    <trip id="veh176" type="veh_passenger" depart="45.73" departLane="best" from="1316295726#0" to="483236728#0"/>
    <trip id="veh177" type="veh_passenger" depart="45.99" departLane="best" from="-1088325197#1" to="742215272#0"/>
    <trip id="veh178" type="veh_passenger" depart="46.25" departLane="best" from="458166893#0" to="496986803#13"/>
    <trip id="veh179" type="veh_passenger" depart="46.51" departLane="best" from="511699176#0" to="46482600"/>
    <trip id="veh180" type="veh_passenger" depart="46.77" departLane="best" departSpeed="max" from="320888283" to="1023236297#0"/>
    <trip id="veh182" type="veh_passenger" depart="47.29" departLane="best" from="194926855#0" to="569345539#0"/>
    <trip id="veh183" type="veh_passenger" depart="47.55" departLane="best" from="496990647#0" to="167922074#0"/>
    <trip id="veh184" type="veh_passenger" depart="47.81" departLane="best" from="194926851#0" to="384649120#5"/>
    <trip id="veh185" type="veh_passenger" depart="48.07" departLane="best" from="384178816#3" to="139919706#0"/>
    <trip id="veh186" type="veh_passenger" depart="48.33" departLane="best" from="1049920718#0" to="396444293#4"/>
    <trip id="veh187" type="veh_passenger" depart="48.59" departLane="best" from="814278019#0" to="46492008"/>
    <trip id="veh189" type="veh_passenger" depart="49.11" departLane="best" from="169383514#0" to="458166897#15"/>
    <trip id="veh190" type="veh_passenger" depart="49.37" departLane="best" from="-1088325196#1" to="1376704198#6"/>
    <trip id="veh191" type="veh_passenger" depart="49.63" departLane="best" from="397795463#0" to="458177133#4"/>
    <trip id="veh192" type="veh_passenger" depart="49.89" departLane="best" from="46469723#0" to="420901920#0"/>
    <trip id="veh193" type="veh_passenger" depart="50.15" departLane="best" from="420496529#0" to="1207834765#0"/>
    <trip id="veh194" type="veh_passenger" depart="50.41" departLane="best" departSpeed="max" from="5671349#0" to="1135614655#0"/>
    <trip id="veh195" type="veh_passenger" depart="50.67" departLane="best" from="1027181003#0" to="438385431#9"/>
    <trip id="veh197" type="veh_passenger" depart="51.19" departLane="best" from="569345474#0" to="511699181#0"/>
    <trip id="veh198" type="veh_passenger" depart="51.45" departLane="best" departSpeed="max" from="46490538#0" to="1212776159#0"/>
    <trip id="veh199" type="veh_passenger" depart="51.71" departLane="best" from="1198594030#0" to="-420356169#3"/>
    <trip id="veh201" type="veh_passenger" depart="52.23" departLane="best" from="575746067#0" to="1023238044"/>
    <trip id="veh202" type="veh_passenger" depart="52.49" departLane="best" departSpeed="max" from="396444293#0" to="460606347#0"/>
    <trip id="veh204" type="veh_passenger" depart="53.01" departLane="best" from="420907906#0" to="127693383#6"/>
    <trip id="veh205" type="veh_passenger" depart="53.27" departLane="best" from="46469727#0" to="-1272613980#2"/>
    <trip id="veh206" type="veh_passenger" depart="53.53" departLane="best" from="511699184#0" to="528748997#11"/>
    <trip id="veh207" type="veh_passenger" depart="53.79" departLane="best" from="1031879418#0" to="396444295#3"/>
    <trip id="veh208" type="veh_passenger" depart="54.05" departLane="best" from="1135661892#0" to="954520388#0"/>
    <trip id="veh209" type="veh_passenger" depart="54.31" departLane="best" from="438397345#0" to="-988956476"/>
    <trip id="veh211" type="veh_passenger" depart="54.83" departLane="best" from="420901682#0" to="5671442#0"/>
    <trip id="veh212" type="veh_passenger" depart="55.09" departLane="best" from="46482600" to="988980354#0"/>
    <trip id="veh213" type="veh_passenger" depart="55.35" departLane="best" from="458180189#0" to="936539648#0"/>
    <trip id="veh214" type="veh_passenger" depart="55.61" departLane="best" from="68674961#8" to="458180197#0"/>
    <trip id="veh215" type="veh_passenger" depart="55.87" departLane="best" from="496990647#0" to="421853646"/>
    <trip id="veh216" type="veh_passenger" depart="56.13" departLane="best" from="569345515#6" to="458166897#15"/>
    <trip id="veh217" type="veh_passenger" depart="56.39" departLane="best" from="68674968#12" to="505777313#0"/>
    <trip id="veh218" type="veh_passenger" depart="56.65" departLane="best" from="420904615#0" to="1316831694#0"/>
    <trip id="veh219" type="veh_passenger" depart="56.91" departLane="best" from="1313071249#0" to="46240204#0"/>
    <trip id="veh220" type="veh_passenger" depart="57.17" departLane="best" from="542096279#0" to="441405435#0"/>
    <trip id="veh221" type="veh_passenger" depart="57.43" departLane="best" from="460585328#9" to="1352944235#0"/>
    <trip id="veh222" type="veh_passenger" depart="57.68" departLane="best" from="1027130507#0" to="1376704198#3"/>
    <trip id="veh223" type="veh_passenger" depart="57.94" departLane="best" from="458166894#0" to="1051750425#0"/>
    <trip id="veh224" type="veh_passenger" depart="58.20" departLane="best" from="125479721#0" to="46518734#0"/>
    <trip id="veh225" type="veh_passenger" depart="58.46" departLane="best" from="492489884#0" to="1022184080#0"/>
    <trip id="veh226" type="veh_passenger" depart="58.72" departLane="best" from="384649121#0" to="458166897#0"/>
    <trip id="veh227" type="veh_passenger" depart="58.98" departLane="best" departSpeed="max" from="396444293#0" to="1201651437#3"/>
    <trip id="veh228" type="veh_passenger" depart="59.24" departLane="best" from="396444293#1" to="708353351#1"/>
    <trip id="veh230" type="veh_passenger" depart="59.76" departLane="best" from="588157337#0" to="525729009#0"/>
    <trip id="veh232" type="veh_passenger" depart="60.28" departLane="best" from="226041028#0" to="511699182#0"/>
    <trip id="veh233" type="veh_passenger" depart="60.54" departLane="best" from="587038081#0" to="95181774#0"/>
    <trip id="veh234" type="veh_passenger" depart="60.80" departLane="best" from="396444293#1" to="511699175#0"/>
    <trip id="veh235" type="veh_passenger" depart="61.06" departLane="best" from="458166897#12" to="458180193#0"/>
    <trip id="veh236" type="veh_passenger" depart="61.32" departLane="best" from="420356171#0" to="-420904659#1"/>
    <trip id="veh238" type="veh_passenger" depart="61.84" departLane="best" from="384649120#2" to="1124078896#0"/>
    <trip id="veh239" type="veh_passenger" depart="62.10" departLane="best" from="420901922#0" to="1049920716#0"/>
    <trip id="veh240" type="veh_passenger" depart="62.36" departLane="best" from="460585328#15" to="-420904621#1"/>
    <trip id="veh241" type="veh_passenger" depart="62.62" departLane="best" from="380147339#0" to="458166897#33"/>
    <trip id="veh242" type="veh_passenger" depart="62.88" departLane="best" from="-420904659#1" to="464515891#0"/>
    <trip id="veh243" type="veh_passenger" depart="63.14" departLane="best" from="1051750426#0" to="420901690#0"/>
    <trip id="veh244" type="veh_passenger" depart="63.40" departLane="best" from="1021047632#0" to="350726028#3"/>
    <trip id="veh245" type="veh_passenger" depart="63.66" departLane="best" from="1201839361" to="195743190#0"/>
    <trip id="veh246" type="veh_passenger" depart="63.92" departLane="best" from="525729010#0" to="350726028#3"/>
    <trip id="veh247" type="veh_passenger" depart="64.18" departLane="best" from="511699185#0" to="569345508#0"/>
    <trip id="veh248" type="veh_passenger" depart="64.44" departLane="best" from="1316295725#3" to="1027130510#0"/>
    <trip id="veh249" type="veh_passenger" depart="64.70" departLane="best" from="-384649121#7" to="458166895#0"/>
    <trip id="veh250" type="veh_passenger" depart="64.96" departLane="best" from="989793295#0" to="226041005#4"/>
    <trip id="veh251" type="veh_passenger" depart="65.22" departLane="best" from="464543614#0" to="5669226"/>
    <trip id="veh252" type="veh_passenger" depart="65.48" departLane="best" from="464543615#0" to="511699182#3"/>
    <trip id="veh253" type="veh_passenger" depart="65.74" departLane="best" departSpeed="max" from="936537011" to="1201643838#0"/>
    <trip id="veh254" type="veh_passenger" depart="66.00" departLane="best" from="-388696206#2" to="1088325196#0"/>
    <trip id="veh255" type="veh_passenger" depart="66.26" departLane="best" from="1049920718#0" to="46482541#0-AddedOnRampEdge"/>
    <trip id="veh256" type="veh_passenger" depart="66.52" departLane="best" from="458166897#33" to="1207834768#0"/>
    <trip id="veh257" type="veh_passenger" depart="66.78" departLane="best" from="46525058#0" to="525729010#0"/>
    <trip id="veh258" type="veh_passenger" depart="67.04" departLane="best" from="1124078897#0" to="458180193#6"/>
    <trip id="veh259" type="veh_passenger" depart="67.30" departLane="best" from="511699182#3" to="1040766903"/>
    <trip id="veh261" type="veh_passenger" depart="67.82" departLane="best" from="1036712190" to="-420904618#3"/>
    <trip id="veh262" type="veh_passenger" depart="68.08" departLane="best" from="194926855#0" to="46492008"/>
    <trip id="veh263" type="veh_passenger" depart="68.34" departLane="best" from="496986803#13" to="1027130507#0"/>
    <trip id="veh264" type="veh_passenger" depart="68.60" departLane="best" departSpeed="max" from="46520833#0" to="460585328#9"/>
    <trip id="veh265" type="veh_passenger" depart="68.86" departLane="best" departSpeed="max" from="1030123277#0" to="542096279#0"/>
    <trip id="veh266" type="veh_passenger" depart="69.12" departLane="best" departSpeed="max" from="584971499#0" to="458180191#0"/>
    <trip id="veh267" type="veh_passenger" depart="69.38" departLane="best" from="1049845754#0" to="974611019#0"/>
    <trip id="veh268" type="veh_passenger" depart="69.64" departLane="best" from="5670275#0" to="226041002#0"/>
    <trip id="veh269" type="veh_passenger" depart="69.90" departLane="best" from="397795463#0" to="320888292"/>
    <trip id="veh270" type="veh_passenger" depart="70.16" departLane="best" departSpeed="max" from="421853647" to="195743345#0"/>
    <trip id="veh271" type="veh_passenger" depart="70.42" departLane="best" from="575746067#0" to="569345474#0"/>
    <trip id="veh272" type="veh_passenger" depart="70.68" departLane="best" from="1030283845" to="954520389#0"/>
    <trip id="veh273" type="veh_passenger" depart="70.94" departLane="best" from="492489884#0" to="420356169#0"/>
    <trip id="veh275" type="veh_passenger" depart="71.46" departLane="best" from="1320290376#0" to="5672149#0"/>
    <trip id="veh276" type="veh_passenger" depart="71.72" departLane="best" from="420356169#0" to="496993762#0"/>